
Circuit: .options savecurrents

Doing analysis at TEMP = 27.000000 and TNOM = 27.000000


No. of Data Rows : 1
********************************************
Operating point
********************************************
op_TAB
@r1[i] = -2.64261e-04
@r2[i] = -2.77043e-04
@r3[i] = -1.27815e-05
@r4[i] = -1.20845e-03
@r5[i] = 1.290270e-03
@r6[i] = 9.441840e-04
@r7[i] = 9.441840e-04
v(1) = -4.87466e+00
v(2) = 2.261481e-01
v(3) = -3.89856e-02
v(4) = -6.20197e-01
v(5) = 4.006987e+00
v(6) = -7.80120e+00
v(7) = -6.83331e+00
v(8) = -6.83331e+00
hc#branch = 6.904308e-05
vcc#branch = -2.64261e-04
vd#branch = 9.441840e-04
op_END
ngspice-31 done
