
Circuit: .options savecurrents

.ic: no such command available in ngspice
Doing analysis at TEMP = 27.000000 and TNOM = 27.000000


No. of Data Rows : 1
********************************************
Transient analysis
********************************************
Doing analysis at TEMP = 27.000000 and TNOM = 27.000000


Initial Transient Solution
--------------------------

Node                                   Voltage
----                                   -------
1                                            0
6                                      8.52305
3                                 -1.79914e-12
2                                 -5.81786e-13
5                                 -4.99751e-13
7                                  1.91049e-13
4                                  1.91049e-13
8                                  2.85152e-13
hd#branch                           0.00283376
vd#branch                         -9.35544e-17
vcc#branch                        -5.71791e-16


No. of Data Rows : 2008

The file "trans.ps" may be printed on a postscript printer.
trans_FIG
op_END
ngspice-31 done
