
Circuit: .options savecurrents

.ic: no such command available in ngspice
Doing analysis at TEMP = 27.000000 and TNOM = 27.000000


No. of Data Rows : 1
********************************************
Transient analysis
********************************************
Doing analysis at TEMP = 27.000000 and TNOM = 27.000000


Initial Transient Solution
--------------------------

Node                                   Voltage
----                                   -------
1                                            0
6                                      8.52305
3                                 -1.79914e-12
2                                 -5.81786e-13
5                                 -4.99751e-13
7                                  1.91049e-13
4                                  1.91049e-13
8                                  2.85152e-13
hd#branch                           0.00283376
vd#branch                         -9.35544e-17
vcc#branch                        -5.71791e-16


No. of Data Rows : 2008

The file "trans.ps" may be printed on a postscript printer.
trans_FIG
                             .options savecurrents
                             Transient Analysis  Sun Apr  4 18:29:48  2021
--------------------------------------------------------------------------------
Index   time            v(6)            
--------------------------------------------------------------------------------
0	0.000000e+00	8.523047e+00	
1	1.000000e-07	8.522431e+00	
2	2.000000e-07	8.521814e+00	
3	4.000000e-07	8.520582e+00	
4	8.000000e-07	8.518118e+00	
5	1.600000e-06	8.513191e+00	
6	3.200000e-06	8.503347e+00	
7	6.400000e-06	8.483694e+00	
8	1.280000e-05	8.444549e+00	
9	2.280000e-05	8.383883e+00	
10	3.280000e-05	8.323941e+00	
11	4.280000e-05	8.264851e+00	
12	5.280000e-05	8.206736e+00	
13	6.280000e-05	8.149721e+00	
14	7.280000e-05	8.093921e+00	
15	8.280000e-05	8.039451e+00	
16	9.280000e-05	7.986418e+00	
17	1.028000e-04	7.934925e+00	
18	1.128000e-04	7.885071e+00	
19	1.228000e-04	7.836946e+00	
20	1.328000e-04	7.790634e+00	
21	1.428000e-04	7.746214e+00	
22	1.528000e-04	7.703756e+00	
23	1.628000e-04	7.663323e+00	
24	1.728000e-04	7.624972e+00	
25	1.828000e-04	7.588749e+00	
26	1.928000e-04	7.554695e+00	
27	2.028000e-04	7.522841e+00	
28	2.128000e-04	7.493210e+00	
29	2.228000e-04	7.465817e+00	
30	2.328000e-04	7.440668e+00	
31	2.428000e-04	7.417761e+00	
32	2.528000e-04	7.397084e+00	
33	2.628000e-04	7.378618e+00	
34	2.728000e-04	7.362336e+00	
35	2.828000e-04	7.348202e+00	
36	2.928000e-04	7.336171e+00	
37	3.028000e-04	7.326190e+00	
38	3.128000e-04	7.318201e+00	
39	3.228000e-04	7.312136e+00	
40	3.328000e-04	7.307919e+00	
41	3.428000e-04	7.305469e+00	
42	3.528000e-04	7.304698e+00	
43	3.628000e-04	7.305511e+00	
44	3.728000e-04	7.307806e+00	
45	3.828000e-04	7.311479e+00	
46	3.928000e-04	7.316417e+00	
47	4.028000e-04	7.322505e+00	
48	4.128000e-04	7.329622e+00	
49	4.228000e-04	7.337645e+00	
50	4.328000e-04	7.346445e+00	
51	4.428000e-04	7.355894e+00	
52	4.528000e-04	7.365858e+00	
53	4.628000e-04	7.376204e+00	
54	4.728000e-04	7.386796e+00	

Index   time            v(6)            
--------------------------------------------------------------------------------
55	4.828000e-04	7.397499e+00	
56	4.928000e-04	7.408177e+00	
57	5.028000e-04	7.418693e+00	
58	5.128000e-04	7.428914e+00	
59	5.228000e-04	7.438706e+00	
60	5.328000e-04	7.447937e+00	
61	5.428000e-04	7.456480e+00	
62	5.528000e-04	7.464208e+00	
63	5.628000e-04	7.470999e+00	
64	5.728000e-04	7.476735e+00	
65	5.828000e-04	7.481302e+00	
66	5.928000e-04	7.484592e+00	
67	6.028000e-04	7.486500e+00	
68	6.128000e-04	7.486929e+00	
69	6.228000e-04	7.485788e+00	
70	6.328000e-04	7.482991e+00	
71	6.428000e-04	7.478460e+00	
72	6.528000e-04	7.472124e+00	
73	6.628000e-04	7.463919e+00	
74	6.728000e-04	7.453788e+00	
75	6.828000e-04	7.441684e+00	
76	6.928000e-04	7.427566e+00	
77	7.028000e-04	7.411402e+00	
78	7.128000e-04	7.393170e+00	
79	7.228000e-04	7.372853e+00	
80	7.328000e-04	7.350444e+00	
81	7.428000e-04	7.325947e+00	
82	7.528000e-04	7.299371e+00	
83	7.628000e-04	7.270735e+00	
84	7.728000e-04	7.240067e+00	
85	7.828000e-04	7.207401e+00	
86	7.928000e-04	7.172782e+00	
87	8.028000e-04	7.136262e+00	
88	8.128000e-04	7.097900e+00	
89	8.228000e-04	7.057762e+00	
90	8.328000e-04	7.015924e+00	
91	8.428000e-04	6.972467e+00	
92	8.528000e-04	6.927478e+00	
93	8.628000e-04	6.881052e+00	
94	8.728000e-04	6.833289e+00	
95	8.828000e-04	6.784295e+00	
96	8.928000e-04	6.734180e+00	
97	9.028000e-04	6.683061e+00	
98	9.128000e-04	6.631056e+00	
99	9.228000e-04	6.578291e+00	
100	9.328000e-04	6.524890e+00	
101	9.428000e-04	6.470985e+00	
102	9.528000e-04	6.416706e+00	
103	9.628000e-04	6.362188e+00	
104	9.728000e-04	6.307564e+00	
105	9.828000e-04	6.252972e+00	
106	9.928000e-04	6.198545e+00	
107	1.002800e-03	6.144420e+00	
108	1.012800e-03	6.090730e+00	
109	1.022800e-03	6.037608e+00	
110	1.032800e-03	5.985186e+00	
111	1.042800e-03	5.933591e+00	
112	1.052800e-03	5.882948e+00	

Index   time            v(6)            
--------------------------------------------------------------------------------
113	1.062800e-03	5.833380e+00	
114	1.072800e-03	5.785004e+00	
115	1.082800e-03	5.737934e+00	
116	1.092800e-03	5.692277e+00	
117	1.102800e-03	5.648137e+00	
118	1.112800e-03	5.605612e+00	
119	1.122800e-03	5.564792e+00	
120	1.132800e-03	5.525763e+00	
121	1.142800e-03	5.488601e+00	
122	1.152800e-03	5.453379e+00	
123	1.162800e-03	5.420158e+00	
124	1.172800e-03	5.388996e+00	
125	1.182800e-03	5.359940e+00	
126	1.192800e-03	5.333029e+00	
127	1.202800e-03	5.308295e+00	
128	1.212800e-03	5.285762e+00	
129	1.222800e-03	5.265444e+00	
130	1.232800e-03	5.247347e+00	
131	1.242800e-03	5.231469e+00	
132	1.252800e-03	5.217799e+00	
133	1.262800e-03	5.206318e+00	
134	1.272800e-03	5.196998e+00	
135	1.282800e-03	5.189804e+00	
136	1.292800e-03	5.184690e+00	
137	1.302800e-03	5.181605e+00	
138	1.312800e-03	5.180489e+00	
139	1.322800e-03	5.181275e+00	
140	1.332800e-03	5.183887e+00	
141	1.342800e-03	5.188245e+00	
142	1.352800e-03	5.194259e+00	
143	1.362800e-03	5.201836e+00	
144	1.372800e-03	5.210874e+00	
145	1.382800e-03	5.221267e+00	
146	1.392800e-03	5.232904e+00	
147	1.402800e-03	5.245670e+00	
148	1.412800e-03	5.259443e+00	
149	1.422800e-03	5.274100e+00	
150	1.432800e-03	5.289514e+00	
151	1.442800e-03	5.305555e+00	
152	1.452800e-03	5.322091e+00	
153	1.462800e-03	5.338987e+00	
154	1.472800e-03	5.356108e+00	
155	1.482800e-03	5.373320e+00	
156	1.492800e-03	5.390484e+00	
157	1.502800e-03	5.407468e+00	
158	1.512800e-03	5.424134e+00	
159	1.522800e-03	5.440351e+00	
160	1.532800e-03	5.455987e+00	
161	1.542800e-03	5.470914e+00	
162	1.552800e-03	5.485006e+00	
163	1.562800e-03	5.498140e+00	
164	1.572800e-03	5.510199e+00	
165	1.582800e-03	5.521069e+00	
166	1.592800e-03	5.530641e+00	
167	1.602800e-03	5.538811e+00	
168	1.612800e-03	5.545483e+00	
169	1.622800e-03	5.550564e+00	
170	1.632800e-03	5.553970e+00	

Index   time            v(6)            
--------------------------------------------------------------------------------
171	1.642800e-03	5.555621e+00	
172	1.652800e-03	5.555447e+00	
173	1.662800e-03	5.553385e+00	
174	1.672800e-03	5.549377e+00	
175	1.682800e-03	5.543377e+00	
176	1.692800e-03	5.535343e+00	
177	1.702800e-03	5.525244e+00	
178	1.712800e-03	5.513056e+00	
179	1.722800e-03	5.498765e+00	
180	1.732800e-03	5.482363e+00	
181	1.742800e-03	5.463853e+00	
182	1.752800e-03	5.443245e+00	
183	1.762800e-03	5.420557e+00	
184	1.772800e-03	5.395819e+00	
185	1.782800e-03	5.369064e+00	
186	1.792800e-03	5.340337e+00	
187	1.802800e-03	5.309689e+00	
188	1.812800e-03	5.277181e+00	
189	1.822800e-03	5.242879e+00	
190	1.832800e-03	5.206858e+00	
191	1.842800e-03	5.169198e+00	
192	1.852800e-03	5.129989e+00	
193	1.862800e-03	5.089323e+00	
194	1.872800e-03	5.047303e+00	
195	1.882800e-03	5.004033e+00	
196	1.892800e-03	4.959624e+00	
197	1.902800e-03	4.914192e+00	
198	1.912800e-03	4.867857e+00	
199	1.922800e-03	4.820742e+00	
200	1.932800e-03	4.772974e+00	
201	1.942800e-03	4.724684e+00	
202	1.952800e-03	4.676002e+00	
203	1.962800e-03	4.627062e+00	
204	1.972800e-03	4.578000e+00	
205	1.982800e-03	4.528950e+00	
206	1.992800e-03	4.480049e+00	
207	2.002800e-03	4.431431e+00	
208	2.012800e-03	4.383232e+00	
209	2.022800e-03	4.335583e+00	
210	2.032800e-03	4.288615e+00	
211	2.042800e-03	4.242457e+00	
212	2.052800e-03	4.197235e+00	
213	2.062800e-03	4.153069e+00	
214	2.072800e-03	4.110079e+00	
215	2.082800e-03	4.068376e+00	
216	2.092800e-03	4.028071e+00	
217	2.102800e-03	3.989265e+00	
218	2.112800e-03	3.952056e+00	
219	2.122800e-03	3.916536e+00	
220	2.132800e-03	3.882789e+00	
221	2.142800e-03	3.850893e+00	
222	2.152800e-03	3.820919e+00	
223	2.162800e-03	3.792931e+00	
224	2.172800e-03	3.766984e+00	
225	2.182800e-03	3.743126e+00	
226	2.192800e-03	3.721397e+00	
227	2.202800e-03	3.701829e+00	
228	2.212800e-03	3.684444e+00	

Index   time            v(6)            
--------------------------------------------------------------------------------
229	2.222800e-03	3.669258e+00	
230	2.232800e-03	3.656277e+00	
231	2.242800e-03	3.645498e+00	
232	2.252800e-03	3.636911e+00	
233	2.262800e-03	3.630497e+00	
234	2.272800e-03	3.626227e+00	
235	2.282800e-03	3.624067e+00	
236	2.292800e-03	3.623971e+00	
237	2.302800e-03	3.625888e+00	
238	2.312800e-03	3.629759e+00	
239	2.322800e-03	3.635514e+00	
240	2.332800e-03	3.643081e+00	
241	2.342800e-03	3.652377e+00	
242	2.352800e-03	3.663314e+00	
243	2.362800e-03	3.675797e+00	
244	2.372800e-03	3.689725e+00	
245	2.382800e-03	3.704994e+00	
246	2.392800e-03	3.721491e+00	
247	2.402800e-03	3.739100e+00	
248	2.412800e-03	3.757702e+00	
249	2.422800e-03	3.777172e+00	
250	2.432800e-03	3.797384e+00	
251	2.442800e-03	3.818207e+00	
252	2.452800e-03	3.839509e+00	
253	2.462800e-03	3.861157e+00	
254	2.472800e-03	3.883015e+00	
255	2.482800e-03	3.904947e+00	
256	2.492800e-03	3.926818e+00	
257	2.502800e-03	3.948492e+00	
258	2.512800e-03	3.969835e+00	
259	2.522800e-03	3.990713e+00	
260	2.532800e-03	4.010995e+00	
261	2.542800e-03	4.030553e+00	
262	2.552800e-03	4.049261e+00	
263	2.562800e-03	4.066997e+00	
264	2.572800e-03	4.083642e+00	
265	2.582800e-03	4.099084e+00	
266	2.592800e-03	4.113214e+00	
267	2.602800e-03	4.125927e+00	
268	2.612800e-03	4.137127e+00	
269	2.622800e-03	4.146722e+00	
270	2.632800e-03	4.154626e+00	
271	2.642800e-03	4.160763e+00	
272	2.652800e-03	4.165059e+00	
273	2.662800e-03	4.167453e+00	
274	2.672800e-03	4.167887e+00	
275	2.682800e-03	4.166314e+00	
276	2.692800e-03	4.162694e+00	
277	2.702800e-03	4.156994e+00	
278	2.712800e-03	4.149192e+00	
279	2.722800e-03	4.139271e+00	
280	2.732800e-03	4.127227e+00	
281	2.742800e-03	4.113060e+00	
282	2.752800e-03	4.096781e+00	
283	2.762800e-03	4.078409e+00	
284	2.772800e-03	4.057972e+00	
285	2.782800e-03	4.035505e+00	
286	2.792800e-03	4.011052e+00	

Index   time            v(6)            
--------------------------------------------------------------------------------
287	2.802800e-03	3.984664e+00	
288	2.812800e-03	3.956403e+00	
289	2.822800e-03	3.926334e+00	
290	2.832800e-03	3.894532e+00	
291	2.842800e-03	3.861078e+00	
292	2.852800e-03	3.826061e+00	
293	2.862800e-03	3.789575e+00	
294	2.872800e-03	3.751720e+00	
295	2.882800e-03	3.712602e+00	
296	2.892800e-03	3.672332e+00	
297	2.902800e-03	3.631026e+00	
298	2.912800e-03	3.588803e+00	
299	2.922800e-03	3.545788e+00	
300	2.932800e-03	3.502106e+00	
301	2.942800e-03	3.457889e+00	
302	2.952800e-03	3.413267e+00	
303	2.962800e-03	3.368375e+00	
304	2.972800e-03	3.323346e+00	
305	2.982800e-03	3.278318e+00	
306	2.992800e-03	3.233425e+00	
307	3.002800e-03	3.188802e+00	
308	3.012800e-03	3.144585e+00	
309	3.022800e-03	3.100906e+00	
310	3.032800e-03	3.057895e+00	
311	3.042800e-03	3.015682e+00	
312	3.052800e-03	2.974391e+00	
313	3.062800e-03	2.934145e+00	
314	3.072800e-03	2.895061e+00	
315	3.082800e-03	2.857253e+00	
316	3.092800e-03	2.820829e+00	
317	3.102800e-03	2.785892e+00	
318	3.112800e-03	2.752540e+00	
319	3.122800e-03	2.720864e+00	
320	3.132800e-03	2.690949e+00	
321	3.142800e-03	2.662873e+00	
322	3.152800e-03	2.636707e+00	
323	3.162800e-03	2.612514e+00	
324	3.172800e-03	2.590350e+00	
325	3.182800e-03	2.570263e+00	
326	3.192800e-03	2.552293e+00	
327	3.202800e-03	2.536472e+00	
328	3.212800e-03	2.522822e+00	
329	3.222800e-03	2.511359e+00	
330	3.232800e-03	2.502089e+00	
331	3.242800e-03	2.495009e+00	
332	3.252800e-03	2.490109e+00	
333	3.262800e-03	2.487370e+00	
334	3.272800e-03	2.486765e+00	
335	3.282800e-03	2.488256e+00	
336	3.292800e-03	2.491801e+00	
337	3.302800e-03	2.497347e+00	
338	3.312800e-03	2.504834e+00	
339	3.322800e-03	2.514195e+00	
340	3.332800e-03	2.525355e+00	
341	3.342800e-03	2.538233e+00	
342	3.352800e-03	2.552741e+00	
343	3.362800e-03	2.568783e+00	
344	3.372800e-03	2.586260e+00	

Index   time            v(6)            
--------------------------------------------------------------------------------
345	3.382800e-03	2.605065e+00	
346	3.392800e-03	2.625087e+00	
347	3.402800e-03	2.646210e+00	
348	3.412800e-03	2.668315e+00	
349	3.422800e-03	2.691277e+00	
350	3.432800e-03	2.714968e+00	
351	3.442800e-03	2.739261e+00	
352	3.452800e-03	2.764021e+00	
353	3.462800e-03	2.789116e+00	
354	3.472800e-03	2.814409e+00	
355	3.482800e-03	2.839767e+00	
356	3.492800e-03	2.865051e+00	
357	3.502800e-03	2.890128e+00	
358	3.512800e-03	2.914863e+00	
359	3.522800e-03	2.939122e+00	
360	3.532800e-03	2.962774e+00	
361	3.542800e-03	2.985692e+00	
362	3.552800e-03	3.007748e+00	
363	3.562800e-03	3.028822e+00	
364	3.572800e-03	3.048795e+00	
365	3.582800e-03	3.067554e+00	
366	3.592800e-03	3.084989e+00	
367	3.602800e-03	3.100998e+00	
368	3.612800e-03	3.115483e+00	
369	3.622800e-03	3.128352e+00	
370	3.632800e-03	3.139520e+00	
371	3.642800e-03	3.148910e+00	
372	3.652800e-03	3.156450e+00	
373	3.662800e-03	3.162076e+00	
374	3.672800e-03	3.165732e+00	
375	3.682800e-03	3.167371e+00	
376	3.692800e-03	3.166952e+00	
377	3.702800e-03	3.164444e+00	
378	3.712800e-03	3.159823e+00	
379	3.722800e-03	3.153073e+00	
380	3.732800e-03	3.144189e+00	
381	3.742800e-03	3.133173e+00	
382	3.752800e-03	3.120034e+00	
383	3.762800e-03	3.104793e+00	
384	3.772800e-03	3.087476e+00	
385	3.782800e-03	3.068119e+00	
386	3.792800e-03	3.046767e+00	
387	3.802800e-03	3.023470e+00	
388	3.812800e-03	2.998289e+00	
389	3.822800e-03	2.971291e+00	
390	3.832800e-03	2.942550e+00	
391	3.842800e-03	2.912147e+00	
392	3.852800e-03	2.880171e+00	
393	3.862800e-03	2.846717e+00	
394	3.872800e-03	2.811884e+00	
395	3.882800e-03	2.775778e+00	
396	3.892800e-03	2.738510e+00	
397	3.902800e-03	2.700197e+00	
398	3.912800e-03	2.660958e+00	
399	3.922800e-03	2.620916e+00	
400	3.932800e-03	2.580199e+00	
401	3.942800e-03	2.538936e+00	
402	3.952800e-03	2.497259e+00	

Index   time            v(6)            
--------------------------------------------------------------------------------
403	3.962800e-03	2.455302e+00	
404	3.972800e-03	2.413200e+00	
405	3.982800e-03	2.371089e+00	
406	3.992800e-03	2.329104e+00	
407	4.002800e-03	2.287380e+00	
408	4.012800e-03	2.246051e+00	
409	4.022800e-03	2.205252e+00	
410	4.032800e-03	2.165112e+00	
411	4.042800e-03	2.125760e+00	
412	4.052800e-03	2.087321e+00	
413	4.062800e-03	2.049918e+00	
414	4.072800e-03	2.013668e+00	
415	4.082800e-03	1.978684e+00	
416	4.092800e-03	1.945076e+00	
417	4.102800e-03	1.912946e+00	
418	4.112800e-03	1.882392e+00	
419	4.122800e-03	1.853505e+00	
420	4.132800e-03	1.826370e+00	
421	4.142800e-03	1.801065e+00	
422	4.152800e-03	1.777660e+00	
423	4.162800e-03	1.756221e+00	
424	4.172800e-03	1.736801e+00	
425	4.182800e-03	1.719450e+00	
426	4.192800e-03	1.704207e+00	
427	4.202800e-03	1.691103e+00	
428	4.212800e-03	1.680163e+00	
429	4.222800e-03	1.671400e+00	
430	4.232800e-03	1.664822e+00	
431	4.242800e-03	1.660426e+00	
432	4.252800e-03	1.658201e+00	
433	4.262800e-03	1.658129e+00	
434	4.272800e-03	1.660180e+00	
435	4.282800e-03	1.664321e+00	
436	4.292800e-03	1.670506e+00	
437	4.302800e-03	1.678684e+00	
438	4.312800e-03	1.688795e+00	
439	4.322800e-03	1.700772e+00	
440	4.332800e-03	1.714539e+00	
441	4.342800e-03	1.730016e+00	
442	4.352800e-03	1.747114e+00	
443	4.362800e-03	1.765738e+00	
444	4.372800e-03	1.785789e+00	
445	4.382800e-03	1.807159e+00	
446	4.392800e-03	1.829738e+00	
447	4.402800e-03	1.853411e+00	
448	4.412800e-03	1.878056e+00	
449	4.422800e-03	1.903551e+00	
450	4.432800e-03	1.929767e+00	
451	4.442800e-03	1.956576e+00	
452	4.452800e-03	1.983845e+00	
453	4.462800e-03	2.011440e+00	
454	4.472800e-03	2.039226e+00	
455	4.482800e-03	2.067067e+00	
456	4.492800e-03	2.094829e+00	
457	4.502800e-03	2.122374e+00	
458	4.512800e-03	2.149569e+00	
459	4.522800e-03	2.176281e+00	
460	4.532800e-03	2.202379e+00	

Index   time            v(6)            
--------------------------------------------------------------------------------
461	4.542800e-03	2.227733e+00	
462	4.552800e-03	2.252219e+00	
463	4.562800e-03	2.275714e+00	
464	4.572800e-03	2.298101e+00	
465	4.582800e-03	2.319265e+00	
466	4.592800e-03	2.339099e+00	
467	4.602800e-03	2.357498e+00	
468	4.612800e-03	2.374366e+00	
469	4.622800e-03	2.389610e+00	
470	4.632800e-03	2.403146e+00	
471	4.642800e-03	2.414896e+00	
472	4.652800e-03	2.424788e+00	
473	4.662800e-03	2.432759e+00	
474	4.672800e-03	2.438753e+00	
475	4.682800e-03	2.442722e+00	
476	4.692800e-03	2.444626e+00	
477	4.702800e-03	2.444432e+00	
478	4.712800e-03	2.442118e+00	
479	4.722800e-03	2.437669e+00	
480	4.732800e-03	2.431078e+00	
481	4.742800e-03	2.422347e+00	
482	4.752800e-03	2.411487e+00	
483	4.762800e-03	2.398516e+00	
484	4.772800e-03	2.383463e+00	
485	4.782800e-03	2.366363e+00	
486	4.792800e-03	2.347259e+00	
487	4.802800e-03	2.326204e+00	
488	4.812800e-03	2.303258e+00	
489	4.822800e-03	2.278487e+00	
490	4.832800e-03	2.251967e+00	
491	4.842800e-03	2.223777e+00	
492	4.852800e-03	2.194008e+00	
493	4.862800e-03	2.162752e+00	
494	4.872800e-03	2.130111e+00	
495	4.882800e-03	2.096191e+00	
496	4.892800e-03	2.061101e+00	
497	4.902800e-03	2.024959e+00	
498	4.912800e-03	1.987883e+00	
499	4.922800e-03	1.949999e+00	
500	4.932800e-03	1.911432e+00	
501	4.942800e-03	1.872312e+00	
502	4.952800e-03	1.832772e+00	
503	4.962800e-03	1.792945e+00	
504	4.972800e-03	1.752966e+00	
505	4.982800e-03	1.712971e+00	
506	4.992800e-03	1.673094e+00	
507	5.002800e-03	1.633473e+00	
508	5.012800e-03	1.594240e+00	
509	5.022800e-03	1.555530e+00	
510	5.032800e-03	1.517472e+00	
511	5.042800e-03	1.480196e+00	
512	5.052800e-03	1.443826e+00	
513	5.062800e-03	1.408485e+00	
514	5.072800e-03	1.374291e+00	
515	5.082800e-03	1.341357e+00	
516	5.092800e-03	1.309791e+00	
517	5.102800e-03	1.279697e+00	
518	5.112800e-03	1.251172e+00	

Index   time            v(6)            
--------------------------------------------------------------------------------
519	5.122800e-03	1.224308e+00	
520	5.132800e-03	1.199190e+00	
521	5.142800e-03	1.175895e+00	
522	5.152800e-03	1.154494e+00	
523	5.162800e-03	1.135052e+00	
524	5.172800e-03	1.117623e+00	
525	5.182800e-03	1.102256e+00	
526	5.192800e-03	1.088991e+00	
527	5.202800e-03	1.077860e+00	
528	5.212800e-03	1.068885e+00	
529	5.222800e-03	1.062081e+00	
530	5.232800e-03	1.057456e+00	
531	5.242800e-03	1.055006e+00	
532	5.252800e-03	1.054722e+00	
533	5.262800e-03	1.056583e+00	
534	5.272800e-03	1.060563e+00	
535	5.282800e-03	1.066625e+00	
536	5.292800e-03	1.074726e+00	
537	5.302800e-03	1.084814e+00	
538	5.312800e-03	1.096828e+00	
539	5.322800e-03	1.110702e+00	
540	5.332800e-03	1.126360e+00	
541	5.342800e-03	1.143722e+00	
542	5.352800e-03	1.162699e+00	
543	5.362800e-03	1.183196e+00	
544	5.372800e-03	1.205114e+00	
545	5.382800e-03	1.228345e+00	
546	5.392800e-03	1.252780e+00	
547	5.402800e-03	1.278301e+00	
548	5.412800e-03	1.304790e+00	
549	5.422800e-03	1.332121e+00	
550	5.432800e-03	1.360169e+00	
551	5.442800e-03	1.388804e+00	
552	5.452800e-03	1.417892e+00	
553	5.462800e-03	1.447301e+00	
554	5.472800e-03	1.476895e+00	
555	5.482800e-03	1.506539e+00	
556	5.492800e-03	1.536097e+00	
557	5.502800e-03	1.565433e+00	
558	5.512800e-03	1.594413e+00	
559	5.522800e-03	1.622904e+00	
560	5.532800e-03	1.650775e+00	
561	5.542800e-03	1.677897e+00	
562	5.552800e-03	1.704145e+00	
563	5.562800e-03	1.729397e+00	
564	5.572800e-03	1.753535e+00	
565	5.582800e-03	1.776445e+00	
566	5.592800e-03	1.798018e+00	
567	5.602800e-03	1.818152e+00	
568	5.612800e-03	1.836748e+00	
569	5.622800e-03	1.853715e+00	
570	5.632800e-03	1.868969e+00	
571	5.642800e-03	1.882430e+00	
572	5.652800e-03	1.894029e+00	
573	5.662800e-03	1.903701e+00	
574	5.672800e-03	1.911391e+00	
575	5.682800e-03	1.917050e+00	
576	5.692800e-03	1.920638e+00	

Index   time            v(6)            
--------------------------------------------------------------------------------
577	5.702800e-03	1.922124e+00	
578	5.712800e-03	1.921484e+00	
579	5.722800e-03	1.918704e+00	
580	5.732800e-03	1.913776e+00	
581	5.742800e-03	1.906703e+00	
582	5.752800e-03	1.897495e+00	
583	5.762800e-03	1.886172e+00	
584	5.772800e-03	1.872761e+00	
585	5.782800e-03	1.857297e+00	
586	5.792800e-03	1.839825e+00	
587	5.802800e-03	1.820397e+00	
588	5.812800e-03	1.799071e+00	
589	5.822800e-03	1.775917e+00	
590	5.832800e-03	1.751007e+00	
591	5.842800e-03	1.724423e+00	
592	5.852800e-03	1.696254e+00	
593	5.862800e-03	1.666594e+00	
594	5.872800e-03	1.635543e+00	
595	5.882800e-03	1.603207e+00	
596	5.892800e-03	1.569698e+00	
597	5.902800e-03	1.535130e+00	
598	5.912800e-03	1.499625e+00	
599	5.922800e-03	1.463305e+00	
600	5.932800e-03	1.426298e+00	
601	5.942800e-03	1.388733e+00	
602	5.952800e-03	1.350743e+00	
603	5.962800e-03	1.312461e+00	
604	5.972800e-03	1.274021e+00	
605	5.982800e-03	1.235561e+00	
606	5.992800e-03	1.197215e+00	
607	6.002800e-03	1.159119e+00	
608	6.012800e-03	1.121406e+00	
609	6.022800e-03	1.084211e+00	
610	6.032800e-03	1.047664e+00	
611	6.042800e-03	1.011894e+00	
612	6.052800e-03	9.770249e-01	
613	6.062800e-03	9.431801e-01	
614	6.072800e-03	9.104770e-01	
615	6.082800e-03	8.790291e-01	
616	6.092800e-03	8.489451e-01	
617	6.102800e-03	8.203281e-01	
618	6.112800e-03	7.932757e-01	
619	6.122800e-03	7.678792e-01	
620	6.132800e-03	7.442235e-01	
621	6.142800e-03	7.223867e-01	
622	6.152800e-03	7.024396e-01	
623	6.162800e-03	6.844460e-01	
624	6.172800e-03	6.684615e-01	
625	6.182800e-03	6.545342e-01	
626	6.192800e-03	6.427041e-01	
627	6.202800e-03	6.330027e-01	
628	6.212800e-03	6.254535e-01	
629	6.222800e-03	6.200713e-01	
630	6.232800e-03	6.168625e-01	
631	6.242800e-03	6.158249e-01	
632	6.252800e-03	6.169480e-01	
633	6.262800e-03	6.202125e-01	
634	6.272800e-03	6.255909e-01	

Index   time            v(6)            
--------------------------------------------------------------------------------
635	6.282800e-03	6.330474e-01	
636	6.292800e-03	6.425379e-01	
637	6.302800e-03	6.540105e-01	
638	6.312800e-03	6.674054e-01	
639	6.322800e-03	6.826553e-01	
640	6.332800e-03	6.996857e-01	
641	6.342800e-03	7.184150e-01	
642	6.352800e-03	7.387550e-01	
643	6.362800e-03	7.606111e-01	
644	6.372800e-03	7.838829e-01	
645	6.382800e-03	8.084645e-01	
646	6.392800e-03	8.342446e-01	
647	6.402800e-03	8.611075e-01	
648	6.412800e-03	8.889331e-01	
649	6.422800e-03	9.175977e-01	
650	6.432800e-03	9.469741e-01	
651	6.442800e-03	9.769326e-01	
652	6.452800e-03	1.007341e+00	
653	6.462800e-03	1.038066e+00	
654	6.472800e-03	1.068972e+00	
655	6.482800e-03	1.099923e+00	
656	6.492800e-03	1.130784e+00	
657	6.502800e-03	1.161419e+00	
658	6.512800e-03	1.191694e+00	
659	6.522800e-03	1.221476e+00	
660	6.532800e-03	1.250633e+00	
661	6.542800e-03	1.279038e+00	
662	6.552800e-03	1.306564e+00	
663	6.562800e-03	1.333090e+00	
664	6.572800e-03	1.358498e+00	
665	6.582800e-03	1.382674e+00	
666	6.592800e-03	1.405509e+00	
667	6.602800e-03	1.426901e+00	
668	6.612800e-03	1.446751e+00	
669	6.622800e-03	1.464968e+00	
670	6.632800e-03	1.481468e+00	
671	6.642800e-03	1.496171e+00	
672	6.652800e-03	1.509008e+00	
673	6.662800e-03	1.519914e+00	
674	6.672800e-03	1.528834e+00	
675	6.682800e-03	1.535719e+00	
676	6.692800e-03	1.540529e+00	
677	6.702800e-03	1.543233e+00	
678	6.712800e-03	1.543808e+00	
679	6.722800e-03	1.542238e+00	
680	6.732800e-03	1.538517e+00	
681	6.742800e-03	1.532646e+00	
682	6.752800e-03	1.524637e+00	
683	6.762800e-03	1.514509e+00	
684	6.772800e-03	1.502289e+00	
685	6.782800e-03	1.488013e+00	
686	6.792800e-03	1.471724e+00	
687	6.802800e-03	1.453476e+00	
688	6.812800e-03	1.433326e+00	
689	6.822800e-03	1.411344e+00	
690	6.832800e-03	1.387602e+00	
691	6.842800e-03	1.362183e+00	
692	6.852800e-03	1.335175e+00	

Index   time            v(6)            
--------------------------------------------------------------------------------
693	6.862800e-03	1.306672e+00	
694	6.872800e-03	1.276775e+00	
695	6.882800e-03	1.245589e+00	
696	6.892800e-03	1.213226e+00	
697	6.902800e-03	1.179801e+00	
698	6.912800e-03	1.145434e+00	
699	6.922800e-03	1.110249e+00	
700	6.932800e-03	1.074374e+00	
701	6.942800e-03	1.037937e+00	
702	6.952800e-03	1.001071e+00	
703	6.962800e-03	9.639094e-01	
704	6.972800e-03	9.265874e-01	
705	6.982800e-03	8.892404e-01	
706	6.992800e-03	8.520043e-01	
707	7.002800e-03	8.150143e-01	
708	7.012800e-03	7.784049e-01	
709	7.022800e-03	7.423091e-01	
710	7.032800e-03	7.068578e-01	
711	7.042800e-03	6.721795e-01	
712	7.052800e-03	6.383996e-01	
713	7.062800e-03	6.056401e-01	
714	7.072800e-03	5.740188e-01	
715	7.082800e-03	5.436493e-01	
716	7.092800e-03	5.146401e-01	
717	7.102800e-03	4.870946e-01	
718	7.112800e-03	4.611101e-01	
719	7.122800e-03	4.367782e-01	
720	7.132800e-03	4.141837e-01	
721	7.142800e-03	3.934046e-01	
722	7.152800e-03	3.745120e-01	
723	7.162800e-03	3.575693e-01	
724	7.172800e-03	3.426324e-01	
725	7.182800e-03	3.297494e-01	
726	7.192800e-03	3.189602e-01	
727	7.202800e-03	3.102964e-01	
728	7.212800e-03	3.037814e-01	
729	7.222800e-03	2.994302e-01	
730	7.232800e-03	2.972490e-01	
731	7.242800e-03	2.972358e-01	
732	7.252800e-03	2.993799e-01	
733	7.262800e-03	3.036622e-01	
734	7.272800e-03	3.100552e-01	
735	7.282800e-03	3.185229e-01	
736	7.292800e-03	3.290215e-01	
737	7.302800e-03	3.414989e-01	
738	7.312800e-03	3.558954e-01	
739	7.322800e-03	3.721437e-01	
740	7.332800e-03	3.901693e-01	
741	7.342800e-03	4.098905e-01	
742	7.352800e-03	4.312193e-01	
743	7.362800e-03	4.540611e-01	
744	7.372800e-03	4.783154e-01	
745	7.382800e-03	5.038762e-01	
746	7.392800e-03	5.306325e-01	
747	7.402800e-03	5.584685e-01	
748	7.412800e-03	5.872641e-01	
749	7.422800e-03	6.168954e-01	
750	7.432800e-03	6.472356e-01	

Index   time            v(6)            
--------------------------------------------------------------------------------
751	7.442800e-03	6.781548e-01	
752	7.452800e-03	7.095208e-01	
753	7.462800e-03	7.412000e-01	
754	7.472800e-03	7.730572e-01	
755	7.482800e-03	8.049569e-01	
756	7.492800e-03	8.367632e-01	
757	7.502800e-03	8.683408e-01	
758	7.512800e-03	8.995551e-01	
759	7.522800e-03	9.302731e-01	
760	7.532800e-03	9.603638e-01	
761	7.542800e-03	9.896988e-01	
762	7.552800e-03	1.018152e+00	
763	7.562800e-03	1.045603e+00	
764	7.572800e-03	1.071932e+00	
765	7.582800e-03	1.097026e+00	
766	7.592800e-03	1.120777e+00	
767	7.602800e-03	1.143081e+00	
768	7.612800e-03	1.163841e+00	
769	7.622800e-03	1.182965e+00	
770	7.632800e-03	1.200368e+00	
771	7.642800e-03	1.215973e+00	
772	7.652800e-03	1.229708e+00	
773	7.662800e-03	1.241509e+00	
774	7.672800e-03	1.251321e+00	
775	7.682800e-03	1.259095e+00	
776	7.692800e-03	1.264792e+00	
777	7.702800e-03	1.268380e+00	
778	7.712800e-03	1.269836e+00	
779	7.722800e-03	1.269143e+00	
780	7.732800e-03	1.266297e+00	
781	7.742800e-03	1.261299e+00	
782	7.752800e-03	1.254160e+00	
783	7.762800e-03	1.244899e+00	
784	7.772800e-03	1.233543e+00	
785	7.782800e-03	1.220128e+00	
786	7.792800e-03	1.204698e+00	
787	7.802800e-03	1.187305e+00	
788	7.812800e-03	1.168009e+00	
789	7.822800e-03	1.146877e+00	
790	7.832800e-03	1.123983e+00	
791	7.842800e-03	1.099409e+00	
792	7.852800e-03	1.073243e+00	
793	7.862800e-03	1.045579e+00	
794	7.872800e-03	1.016519e+00	
795	7.882800e-03	9.861669e-01	
796	7.892800e-03	9.546351e-01	
797	7.902800e-03	9.220389e-01	
798	7.912800e-03	8.884984e-01	
799	7.922800e-03	8.541373e-01	
800	7.932800e-03	8.190825e-01	
801	7.942800e-03	7.834639e-01	
802	7.952800e-03	7.474134e-01	
803	7.962800e-03	7.110648e-01	
804	7.972800e-03	6.745531e-01	
805	7.982800e-03	6.380139e-01	
806	7.992800e-03	6.015830e-01	
807	8.002800e-03	5.653956e-01	
808	8.012800e-03	5.295862e-01	

Index   time            v(6)            
--------------------------------------------------------------------------------
809	8.022800e-03	4.942879e-01	
810	8.032800e-03	4.596315e-01	
811	8.042800e-03	4.257455e-01	
812	8.052800e-03	3.927554e-01	
813	8.062800e-03	3.607831e-01	
814	8.072800e-03	3.299466e-01	
815	8.082800e-03	3.003593e-01	
816	8.092800e-03	2.721299e-01	
817	8.102800e-03	2.453616e-01	
818	8.112800e-03	2.201519e-01	
819	8.122800e-03	1.965922e-01	
820	8.132800e-03	1.747675e-01	
821	8.142800e-03	1.547557e-01	
822	8.152800e-03	1.366280e-01	
823	8.162800e-03	1.204477e-01	
824	8.172800e-03	1.062708e-01	
825	8.182800e-03	9.414533e-02	
826	8.192800e-03	8.411118e-02	
827	8.202800e-03	7.620008e-02	
828	8.212800e-03	7.043538e-02	
829	8.222800e-03	6.683198e-02	
830	8.232800e-03	6.539629e-02	
831	8.242800e-03	6.612618e-02	
832	8.252800e-03	6.901100e-02	
833	8.262800e-03	7.403162e-02	
834	8.272800e-03	8.116052e-02	
835	8.282800e-03	9.036186e-02	
836	8.292800e-03	1.015917e-01	
837	8.302800e-03	1.147980e-01	
838	8.312800e-03	1.299210e-01	
839	8.322800e-03	1.468936e-01	
840	8.332800e-03	1.656411e-01	
841	8.342800e-03	1.860819e-01	
842	8.352800e-03	2.081280e-01	
843	8.362800e-03	2.316848e-01	
844	8.372800e-03	2.566518e-01	
845	8.382800e-03	2.829231e-01	
846	8.392800e-03	3.103875e-01	
847	8.402800e-03	3.389293e-01	
848	8.412800e-03	3.684285e-01	
849	8.422800e-03	3.987613e-01	
850	8.432800e-03	4.298005e-01	
851	8.442800e-03	4.614166e-01	
852	8.452800e-03	4.934772e-01	
853	8.462800e-03	5.258488e-01	
854	8.472800e-03	5.583963e-01	
855	8.482800e-03	5.909839e-01	
856	8.492800e-03	6.234760e-01	
857	8.502800e-03	6.557371e-01	
858	8.512800e-03	6.876328e-01	
859	8.522800e-03	7.190300e-01	
860	8.532800e-03	7.497978e-01	
861	8.542800e-03	7.798076e-01	
862	8.552800e-03	8.089340e-01	
863	8.562800e-03	8.370549e-01	
864	8.572800e-03	8.640524e-01	
865	8.582800e-03	8.898129e-01	
866	8.592800e-03	9.142279e-01	

Index   time            v(6)            
--------------------------------------------------------------------------------
867	8.602800e-03	9.371940e-01	
868	8.612800e-03	9.586137e-01	
869	8.622800e-03	9.783955e-01	
870	8.632800e-03	9.964544e-01	
871	8.642800e-03	1.012712e+00	
872	8.652800e-03	1.027099e+00	
873	8.662800e-03	1.039549e+00	
874	8.672800e-03	1.050008e+00	
875	8.682800e-03	1.058428e+00	
876	8.692800e-03	1.064768e+00	
877	8.702800e-03	1.068997e+00	
878	8.712800e-03	1.071092e+00	
879	8.722800e-03	1.071036e+00	
880	8.732800e-03	1.068825e+00	
881	8.742800e-03	1.064460e+00	
882	8.752800e-03	1.057952e+00	
883	8.762800e-03	1.049319e+00	
884	8.772800e-03	1.038590e+00	
885	8.782800e-03	1.025800e+00	
886	8.792800e-03	1.010993e+00	
887	8.802800e-03	9.942211e-01	
888	8.812800e-03	9.755437e-01	
889	8.822800e-03	9.550282e-01	
890	8.832800e-03	9.327491e-01	
891	8.842800e-03	9.087879e-01	
892	8.852800e-03	8.832328e-01	
893	8.862800e-03	8.561783e-01	
894	8.872800e-03	8.277248e-01	
895	8.882800e-03	7.979781e-01	
896	8.892800e-03	7.670494e-01	
897	8.902800e-03	7.350544e-01	
898	8.912800e-03	7.021132e-01	
899	8.922800e-03	6.683494e-01	
900	8.932800e-03	6.338901e-01	
901	8.942800e-03	5.988650e-01	
902	8.952800e-03	5.634062e-01	
903	8.962800e-03	5.276473e-01	
904	8.972800e-03	4.917235e-01	
905	8.982800e-03	4.557702e-01	
906	8.992800e-03	4.199233e-01	
907	9.002800e-03	3.843182e-01	
908	9.012800e-03	3.490892e-01	
909	9.022800e-03	3.143693e-01	
910	9.032800e-03	2.802895e-01	
911	9.042800e-03	2.469784e-01	
912	9.052800e-03	2.145612e-01	
913	9.062800e-03	1.831600e-01	
914	9.072800e-03	1.528928e-01	
915	9.082800e-03	1.238729e-01	
916	9.092800e-03	9.620916e-02	
917	9.102800e-03	7.000466e-02	
918	9.112800e-03	4.535698e-02	
919	9.122800e-03	2.235751e-02	
920	9.132800e-03	1.091174e-03	
921	9.142800e-03	-1.83639e-02	
922	9.152800e-03	-3.59369e-02	
923	9.162800e-03	-5.15641e-02	
924	9.172800e-03	-6.51897e-02	

Index   time            v(6)            
--------------------------------------------------------------------------------
925	9.182800e-03	-7.67657e-02	
926	9.192800e-03	-8.62520e-02	
927	9.202800e-03	-9.36171e-02	
928	9.212800e-03	-9.88376e-02	
929	9.222800e-03	-1.01898e-01	
930	9.232800e-03	-1.02793e-01	
931	9.242800e-03	-1.01524e-01	
932	9.252800e-03	-9.81023e-02	
933	9.262800e-03	-9.25461e-02	
934	9.272800e-03	-8.48833e-02	
935	9.282800e-03	-7.51498e-02	
936	9.292800e-03	-6.33896e-02	
937	9.302800e-03	-4.96545e-02	
938	9.312800e-03	-3.40044e-02	
939	9.322800e-03	-1.65065e-02	
940	9.332800e-03	2.764702e-03	
941	9.342800e-03	2.372758e-02	
942	9.352800e-03	4.629398e-02	
943	9.362800e-03	7.036942e-02	
944	9.372800e-03	9.585344e-02	
945	9.382800e-03	1.226401e-01	
946	9.392800e-03	1.506182e-01	
947	9.402800e-03	1.796721e-01	
948	9.412800e-03	2.096817e-01	
949	9.422800e-03	2.405232e-01	
950	9.432800e-03	2.720697e-01	
951	9.442800e-03	3.041912e-01	
952	9.452800e-03	3.367558e-01	
953	9.462800e-03	3.696296e-01	
954	9.472800e-03	4.026778e-01	
955	9.482800e-03	4.357645e-01	
956	9.492800e-03	4.687541e-01	
957	9.502800e-03	5.015110e-01	
958	9.512800e-03	5.339010e-01	
959	9.522800e-03	5.657909e-01	
960	9.532800e-03	5.970498e-01	
961	9.542800e-03	6.275492e-01	
962	9.552800e-03	6.571635e-01	
963	9.562800e-03	6.857709e-01	
964	9.572800e-03	7.132532e-01	
965	9.582800e-03	7.394971e-01	
966	9.592800e-03	7.643938e-01	
967	9.602800e-03	7.878401e-01	
968	9.612800e-03	8.097384e-01	
969	9.622800e-03	8.299974e-01	
970	9.632800e-03	8.485320e-01	
971	9.642800e-03	8.652641e-01	
972	9.652800e-03	8.801227e-01	
973	9.662800e-03	8.930444e-01	
974	9.672800e-03	9.039731e-01	
975	9.682800e-03	9.128608e-01	
976	9.692800e-03	9.196675e-01	
977	9.702800e-03	9.243615e-01	
978	9.712800e-03	9.269195e-01	
979	9.722800e-03	9.273264e-01	
980	9.732800e-03	9.255759e-01	
981	9.742800e-03	9.216700e-01	
982	9.752800e-03	9.156193e-01	

Index   time            v(6)            
--------------------------------------------------------------------------------
983	9.762800e-03	9.074430e-01	
984	9.772800e-03	8.971685e-01	
985	9.782800e-03	8.848317e-01	
986	9.792800e-03	8.704764e-01	
987	9.802800e-03	8.541547e-01	
988	9.812800e-03	8.359262e-01	
989	9.822800e-03	8.158581e-01	
990	9.832800e-03	7.940251e-01	
991	9.842800e-03	7.705085e-01	
992	9.852800e-03	7.453966e-01	
993	9.862800e-03	7.187839e-01	
994	9.872800e-03	6.907706e-01	
995	9.882800e-03	6.614629e-01	
996	9.892800e-03	6.309717e-01	
997	9.902800e-03	5.994129e-01	
998	9.912800e-03	5.669064e-01	
999	9.922800e-03	5.335759e-01	
1000	9.932800e-03	4.995486e-01	
1001	9.942800e-03	4.649540e-01	
1002	9.952800e-03	4.299244e-01	
1003	9.962800e-03	3.945933e-01	
1004	9.972800e-03	3.590959e-01	
1005	9.982800e-03	3.235677e-01	
1006	9.992800e-03	2.881445e-01	
1007	1.000280e-02	2.529617e-01	
1008	1.001280e-02	2.181537e-01	
1009	1.002280e-02	1.838535e-01	
1010	1.003280e-02	1.501920e-01	
1011	1.004280e-02	1.172978e-01	
1012	1.005280e-02	8.529625e-02	
1013	1.006280e-02	5.430936e-02	
1014	1.007280e-02	2.445507e-02	
1015	1.008280e-02	-4.15311e-03	
1016	1.009280e-02	-3.14066e-02	
1017	1.010280e-02	-5.72021e-02	
1018	1.011280e-02	-8.14421e-02	
1019	1.012280e-02	-1.04035e-01	
1020	1.013280e-02	-1.24896e-01	
1021	1.014280e-02	-1.43948e-01	
1022	1.015280e-02	-1.61118e-01	
1023	1.016280e-02	-1.76344e-01	
1024	1.017280e-02	-1.89570e-01	
1025	1.018280e-02	-2.00747e-01	
1026	1.019280e-02	-2.09836e-01	
1027	1.020280e-02	-2.16805e-01	
1028	1.021280e-02	-2.21631e-01	
1029	1.022280e-02	-2.24298e-01	
1030	1.023280e-02	-2.24801e-01	
1031	1.024280e-02	-2.23141e-01	
1032	1.025280e-02	-2.19329e-01	
1033	1.026280e-02	-2.13384e-01	
1034	1.027280e-02	-2.05334e-01	
1035	1.028280e-02	-1.95215e-01	
1036	1.029280e-02	-1.83070e-01	
1037	1.030280e-02	-1.68951e-01	
1038	1.031280e-02	-1.52918e-01	
1039	1.032280e-02	-1.35039e-01	
1040	1.033280e-02	-1.15388e-01	

Index   time            v(6)            
--------------------------------------------------------------------------------
1041	1.034280e-02	-9.40469e-02	
1042	1.035280e-02	-7.11030e-02	
1043	1.036280e-02	-4.66513e-02	
1044	1.037280e-02	-2.07922e-02	
1045	1.038280e-02	6.368250e-03	
1046	1.039280e-02	3.471905e-02	
1047	1.040280e-02	6.414438e-02	
1048	1.041280e-02	9.452422e-02	
1049	1.042280e-02	1.257348e-01	
1050	1.043280e-02	1.576491e-01	
1051	1.044280e-02	1.901374e-01	
1052	1.045280e-02	2.230675e-01	
1053	1.046280e-02	2.563057e-01	
1054	1.047280e-02	2.897171e-01	
1055	1.048280e-02	3.231658e-01	
1056	1.049280e-02	3.565163e-01	
1057	1.050280e-02	3.896330e-01	
1058	1.051280e-02	4.223815e-01	
1059	1.052280e-02	4.546288e-01	
1060	1.053280e-02	4.862440e-01	
1061	1.054280e-02	5.170985e-01	
1062	1.055280e-02	5.470668e-01	
1063	1.056280e-02	5.760270e-01	
1064	1.057280e-02	6.038611e-01	
1065	1.058280e-02	6.304556e-01	
1066	1.059280e-02	6.557018e-01	
1067	1.060280e-02	6.794964e-01	
1068	1.061280e-02	7.017420e-01	
1069	1.062280e-02	7.223470e-01	
1070	1.063280e-02	7.412266e-01	
1071	1.064280e-02	7.583027e-01	
1072	1.065280e-02	7.735041e-01	
1073	1.066280e-02	7.867675e-01	
1074	1.067280e-02	7.980368e-01	
1075	1.068280e-02	8.072640e-01	
1076	1.069280e-02	8.144092e-01	
1077	1.070280e-02	8.194405e-01	
1078	1.071280e-02	8.223348e-01	
1079	1.072280e-02	8.230769e-01	
1080	1.073280e-02	8.216604e-01	
1081	1.074280e-02	8.180876e-01	
1082	1.075280e-02	8.123689e-01	
1083	1.076280e-02	8.045235e-01	
1084	1.077280e-02	7.945789e-01	
1085	1.078280e-02	7.825708e-01	
1086	1.079280e-02	7.685433e-01	
1087	1.080280e-02	7.525483e-01	
1088	1.081280e-02	7.346454e-01	
1089	1.082280e-02	7.149020e-01	
1090	1.083280e-02	6.933925e-01	
1091	1.084280e-02	6.701984e-01	
1092	1.085280e-02	6.454080e-01	
1093	1.086280e-02	6.191157e-01	
1094	1.087280e-02	5.914219e-01	
1095	1.088280e-02	5.624326e-01	
1096	1.089280e-02	5.322588e-01	
1097	1.090280e-02	5.010164e-01	
1098	1.091280e-02	4.688252e-01	

Index   time            v(6)            
--------------------------------------------------------------------------------
1099	1.092280e-02	4.358091e-01	
1100	1.093280e-02	4.020951e-01	
1101	1.094280e-02	3.678129e-01	
1102	1.095280e-02	3.330945e-01	
1103	1.096280e-02	2.980738e-01	
1104	1.097280e-02	2.628858e-01	
1105	1.098280e-02	2.276659e-01	
1106	1.099280e-02	1.925501e-01	
1107	1.100280e-02	1.576736e-01	
1108	1.101280e-02	1.231710e-01	
1109	1.102280e-02	8.917522e-02	
1110	1.103280e-02	5.581720e-02	
1111	1.104280e-02	2.322543e-02	
1112	1.105280e-02	-8.47461e-03	
1113	1.106280e-02	-3.91610e-02	
1114	1.107280e-02	-6.87157e-02	
1115	1.108280e-02	-9.70253e-02	
1116	1.109280e-02	-1.23981e-01	
1117	1.110280e-02	-1.49480e-01	
1118	1.111280e-02	-1.73424e-01	
1119	1.112280e-02	-1.95722e-01	
1120	1.113280e-02	-2.16290e-01	
1121	1.114280e-02	-2.35048e-01	
1122	1.115280e-02	-2.51927e-01	
1123	1.116280e-02	-2.66862e-01	
1124	1.117280e-02	-2.79797e-01	
1125	1.118280e-02	-2.90685e-01	
1126	1.119280e-02	-2.99486e-01	
1127	1.120280e-02	-3.06168e-01	
1128	1.121280e-02	-3.10707e-01	
1129	1.122280e-02	-3.13089e-01	
1130	1.123280e-02	-3.13307e-01	
1131	1.124280e-02	-3.11363e-01	
1132	1.125280e-02	-3.07269e-01	
1133	1.126280e-02	-3.01042e-01	
1134	1.127280e-02	-2.92711e-01	
1135	1.128280e-02	-2.82312e-01	
1136	1.129280e-02	-2.69887e-01	
1137	1.130280e-02	-2.55491e-01	
1138	1.131280e-02	-2.39181e-01	
1139	1.132280e-02	-2.21025e-01	
1140	1.133280e-02	-2.01099e-01	
1141	1.134280e-02	-1.79482e-01	
1142	1.135280e-02	-1.56265e-01	
1143	1.136280e-02	-1.31540e-01	
1144	1.137280e-02	-1.05409e-01	
1145	1.138280e-02	-7.79772e-02	
1146	1.139280e-02	-4.93561e-02	
1147	1.140280e-02	-1.96613e-02	
1148	1.141280e-02	1.098715e-02	
1149	1.142280e-02	4.246548e-02	
1150	1.143280e-02	7.464668e-02	
1151	1.144280e-02	1.074009e-01	
1152	1.145280e-02	1.405962e-01	
1153	1.146280e-02	1.740988e-01	
1154	1.147280e-02	2.077736e-01	
1155	1.148280e-02	2.414850e-01	
1156	1.149280e-02	2.750972e-01	

Index   time            v(6)            
--------------------------------------------------------------------------------
1157	1.150280e-02	3.084748e-01	
1158	1.151280e-02	3.414835e-01	
1159	1.152280e-02	3.739901e-01	
1160	1.153280e-02	4.058637e-01	
1161	1.154280e-02	4.369758e-01	
1162	1.155280e-02	4.672009e-01	
1163	1.156280e-02	4.964171e-01	
1164	1.157280e-02	5.245063e-01	
1165	1.158280e-02	5.513551e-01	
1166	1.159280e-02	5.768548e-01	
1167	1.160280e-02	6.009022e-01	
1168	1.161280e-02	6.233996e-01	
1169	1.162280e-02	6.442557e-01	
1170	1.163280e-02	6.633856e-01	
1171	1.164280e-02	6.807111e-01	
1172	1.165280e-02	6.961613e-01	
1173	1.166280e-02	7.096725e-01	
1174	1.167280e-02	7.211889e-01	
1175	1.168280e-02	7.306624e-01	
1176	1.169280e-02	7.380531e-01	
1177	1.170280e-02	7.433292e-01	
1178	1.171280e-02	7.464673e-01	
1179	1.172280e-02	7.474526e-01	
1180	1.173280e-02	7.462785e-01	
1181	1.174280e-02	7.429473e-01	
1182	1.175280e-02	7.374694e-01	
1183	1.176280e-02	7.298640e-01	
1184	1.177280e-02	7.201587e-01	
1185	1.178280e-02	7.083892e-01	
1186	1.179280e-02	6.945994e-01	
1187	1.180280e-02	6.788413e-01	
1188	1.181280e-02	6.611747e-01	
1189	1.182280e-02	6.416667e-01	
1190	1.183280e-02	6.203920e-01	
1191	1.184280e-02	5.974319e-01	
1192	1.185280e-02	5.728747e-01	
1193	1.186280e-02	5.468149e-01	
1194	1.187280e-02	5.193528e-01	
1195	1.188280e-02	4.905944e-01	
1196	1.189280e-02	4.606509e-01	
1197	1.190280e-02	4.296379e-01	
1198	1.191280e-02	3.976755e-01	
1199	1.192280e-02	3.648875e-01	
1200	1.193280e-02	3.314007e-01	
1201	1.194280e-02	2.973451e-01	
1202	1.195280e-02	2.628526e-01	
1203	1.196280e-02	2.280570e-01	
1204	1.197280e-02	1.930934e-01	
1205	1.198280e-02	1.580972e-01	
1206	1.199280e-02	1.232043e-01	
1207	1.200280e-02	8.855015e-02	
1208	1.201280e-02	5.426908e-02	
1209	1.202280e-02	2.049410e-02	
1210	1.203280e-02	-1.26438e-02	
1211	1.204280e-02	-4.50162e-02	
1212	1.205280e-02	-7.64975e-02	
1213	1.206280e-02	-1.06966e-01	
1214	1.207280e-02	-1.36303e-01	

Index   time            v(6)            
--------------------------------------------------------------------------------
1215	1.208280e-02	-1.64396e-01	
1216	1.209280e-02	-1.91136e-01	
1217	1.210280e-02	-2.16420e-01	
1218	1.211280e-02	-2.40149e-01	
1219	1.212280e-02	-2.62234e-01	
1220	1.213280e-02	-2.82588e-01	
1221	1.214280e-02	-3.01134e-01	
1222	1.215280e-02	-3.17801e-01	
1223	1.216280e-02	-3.32525e-01	
1224	1.217280e-02	-3.45250e-01	
1225	1.218280e-02	-3.55928e-01	
1226	1.219280e-02	-3.64520e-01	
1227	1.220280e-02	-3.70993e-01	
1228	1.221280e-02	-3.75324e-01	
1229	1.222280e-02	-3.77499e-01	
1230	1.223280e-02	-3.77511e-01	
1231	1.224280e-02	-3.75361e-01	
1232	1.225280e-02	-3.71062e-01	
1233	1.226280e-02	-3.64631e-01	
1234	1.227280e-02	-3.56096e-01	
1235	1.228280e-02	-3.45493e-01	
1236	1.229280e-02	-3.32866e-01	
1237	1.230280e-02	-3.18268e-01	
1238	1.231280e-02	-3.01757e-01	
1239	1.232280e-02	-2.83401e-01	
1240	1.233280e-02	-2.63274e-01	
1241	1.234280e-02	-2.41459e-01	
1242	1.235280e-02	-2.18042e-01	
1243	1.236280e-02	-1.93120e-01	
1244	1.237280e-02	-1.66791e-01	
1245	1.238280e-02	-1.39163e-01	
1246	1.239280e-02	-1.10346e-01	
1247	1.240280e-02	-8.04553e-02	
1248	1.241280e-02	-4.96120e-02	
1249	1.242280e-02	-1.79394e-02	
1250	1.243280e-02	1.443536e-02	
1251	1.244280e-02	4.738260e-02	
1252	1.245280e-02	8.077024e-02	
1253	1.246280e-02	1.144645e-01	
1254	1.247280e-02	1.483304e-01	
1255	1.248280e-02	1.822323e-01	
1256	1.249280e-02	2.160345e-01	
1257	1.250280e-02	2.496014e-01	
1258	1.251280e-02	2.827987e-01	
1259	1.252280e-02	3.154934e-01	
1260	1.253280e-02	3.475545e-01	
1261	1.254280e-02	3.788535e-01	
1262	1.255280e-02	4.092649e-01	
1263	1.256280e-02	4.386667e-01	
1264	1.257280e-02	4.669411e-01	
1265	1.258280e-02	4.939743e-01	
1266	1.259280e-02	5.196579e-01	
1267	1.260280e-02	5.438886e-01	
1268	1.261280e-02	5.665688e-01	
1269	1.262280e-02	5.876071e-01	
1270	1.263280e-02	6.069185e-01	
1271	1.264280e-02	6.244250e-01	
1272	1.265280e-02	6.400555e-01	

Index   time            v(6)            
--------------------------------------------------------------------------------
1273	1.266280e-02	6.537466e-01	
1274	1.267280e-02	6.654422e-01	
1275	1.268280e-02	6.750944e-01	
1276	1.269280e-02	6.826631e-01	
1277	1.270280e-02	6.881168e-01	
1278	1.271280e-02	6.914319e-01	
1279	1.272280e-02	6.925935e-01	
1280	1.273280e-02	6.915953e-01	
1281	1.274280e-02	6.884393e-01	
1282	1.275280e-02	6.831361e-01	
1283	1.276280e-02	6.757049e-01	
1284	1.277280e-02	6.661731e-01	
1285	1.278280e-02	6.545766e-01	
1286	1.279280e-02	6.409593e-01	
1287	1.280280e-02	6.253732e-01	
1288	1.281280e-02	6.078779e-01	
1289	1.282280e-02	5.885407e-01	
1290	1.283280e-02	5.674362e-01	
1291	1.284280e-02	5.446459e-01	
1292	1.285280e-02	5.202579e-01	
1293	1.286280e-02	4.943667e-01	
1294	1.287280e-02	4.670727e-01	
1295	1.288280e-02	4.384819e-01	
1296	1.289280e-02	4.087054e-01	
1297	1.290280e-02	3.778589e-01	
1298	1.291280e-02	3.460624e-01	
1299	1.292280e-02	3.134398e-01	
1300	1.293280e-02	2.801179e-01	
1301	1.294280e-02	2.462267e-01	
1302	1.295280e-02	2.118980e-01	
1303	1.296280e-02	1.772657e-01	
1304	1.297280e-02	1.424648e-01	
1305	1.298280e-02	1.076309e-01	
1306	1.299280e-02	7.289983e-02	
1307	1.300280e-02	3.840686e-02	
1308	1.301280e-02	4.286497e-03	
1309	1.302280e-02	-2.93283e-02	
1310	1.303280e-02	-6.23065e-02	
1311	1.304280e-02	-9.45197e-02	
1312	1.305280e-02	-1.25842e-01	
1313	1.306280e-02	-1.56153e-01	
1314	1.307280e-02	-1.85332e-01	
1315	1.308280e-02	-2.13268e-01	
1316	1.309280e-02	-2.39851e-01	
1317	1.310280e-02	-2.64979e-01	
1318	1.311280e-02	-2.88553e-01	
1319	1.312280e-02	-3.10482e-01	
1320	1.313280e-02	-3.30682e-01	
1321	1.314280e-02	-3.49074e-01	
1322	1.315280e-02	-3.65587e-01	
1323	1.316280e-02	-3.80157e-01	
1324	1.317280e-02	-3.92730e-01	
1325	1.318280e-02	-4.03256e-01	
1326	1.319280e-02	-4.11696e-01	
1327	1.320280e-02	-4.18018e-01	
1328	1.321280e-02	-4.22199e-01	
1329	1.322280e-02	-4.24223e-01	
1330	1.323280e-02	-4.24085e-01	

Index   time            v(6)            
--------------------------------------------------------------------------------
1331	1.324280e-02	-4.21787e-01	
1332	1.325280e-02	-4.17338e-01	
1333	1.326280e-02	-4.10759e-01	
1334	1.327280e-02	-4.02076e-01	
1335	1.328280e-02	-3.91326e-01	
1336	1.329280e-02	-3.78552e-01	
1337	1.330280e-02	-3.63807e-01	
1338	1.331280e-02	-3.47150e-01	
1339	1.332280e-02	-3.28649e-01	
1340	1.333280e-02	-3.08377e-01	
1341	1.334280e-02	-2.86417e-01	
1342	1.335280e-02	-2.62857e-01	
1343	1.336280e-02	-2.37790e-01	
1344	1.337280e-02	-2.11319e-01	
1345	1.338280e-02	-1.83548e-01	
1346	1.339280e-02	-1.54588e-01	
1347	1.340280e-02	-1.24556e-01	
1348	1.341280e-02	-9.35716e-02	
1349	1.342280e-02	-6.17581e-02	
1350	1.343280e-02	-2.92429e-02	
1351	1.344280e-02	3.844330e-03	
1352	1.345280e-02	3.737151e-02	
1353	1.346280e-02	7.120487e-02	
1354	1.347280e-02	1.052094e-01	
1355	1.348280e-02	1.392496e-01	
1356	1.349280e-02	1.731894e-01	
1357	1.350280e-02	2.068937e-01	
1358	1.351280e-02	2.402279e-01	
1359	1.352280e-02	2.730590e-01	
1360	1.353280e-02	3.052561e-01	
1361	1.354280e-02	3.366906e-01	
1362	1.355280e-02	3.672372e-01	
1363	1.356280e-02	3.967737e-01	
1364	1.357280e-02	4.251823e-01	
1365	1.358280e-02	4.523494e-01	
1366	1.359280e-02	4.781664e-01	
1367	1.360280e-02	5.025301e-01	
1368	1.361280e-02	5.253428e-01	
1369	1.362280e-02	5.465132e-01	
1370	1.363280e-02	5.659564e-01	
1371	1.364280e-02	5.835941e-01	
1372	1.365280e-02	5.993555e-01	
1373	1.366280e-02	6.131770e-01	
1374	1.367280e-02	6.250027e-01	
1375	1.368280e-02	6.347844e-01	
1376	1.369280e-02	6.424824e-01	
1377	1.370280e-02	6.480648e-01	
1378	1.371280e-02	6.515083e-01	
1379	1.372280e-02	6.527979e-01	
1380	1.373280e-02	6.519272e-01	
1381	1.374280e-02	6.488983e-01	
1382	1.375280e-02	6.437219e-01	
1383	1.376280e-02	6.364170e-01	
1384	1.377280e-02	6.270111e-01	
1385	1.378280e-02	6.155401e-01	
1386	1.379280e-02	6.020479e-01	
1387	1.380280e-02	5.865865e-01	
1388	1.381280e-02	5.692155e-01	

Index   time            v(6)            
--------------------------------------------------------------------------------
1389	1.382280e-02	5.500023e-01	
1390	1.383280e-02	5.290213e-01	
1391	1.384280e-02	5.063541e-01	
1392	1.385280e-02	4.820888e-01	
1393	1.386280e-02	4.563199e-01	
1394	1.387280e-02	4.291479e-01	
1395	1.388280e-02	4.006786e-01	
1396	1.389280e-02	3.710232e-01	
1397	1.390280e-02	3.402975e-01	
1398	1.391280e-02	3.086215e-01	
1399	1.392280e-02	2.761188e-01	
1400	1.393280e-02	2.429166e-01	
1401	1.394280e-02	2.091445e-01	
1402	1.395280e-02	1.749347e-01	
1403	1.396280e-02	1.404209e-01	
1404	1.397280e-02	1.057381e-01	
1405	1.398280e-02	7.102192e-02	
1406	1.399280e-02	3.640813e-02	
1407	1.400280e-02	2.032120e-03	
1408	1.401280e-02	-3.19717e-02	
1409	1.402280e-02	-6.54703e-02	
1410	1.403280e-02	-9.83326e-02	
1411	1.404280e-02	-1.30430e-01	
1412	1.405280e-02	-1.61638e-01	
1413	1.406280e-02	-1.91833e-01	
1414	1.407280e-02	-2.20899e-01	
1415	1.408280e-02	-2.48721e-01	
1416	1.409280e-02	-2.75190e-01	
1417	1.410280e-02	-3.00205e-01	
1418	1.411280e-02	-3.23666e-01	
1419	1.412280e-02	-3.45482e-01	
1420	1.413280e-02	-3.65570e-01	
1421	1.414280e-02	-3.83850e-01	
1422	1.415280e-02	-4.00251e-01	
1423	1.416280e-02	-4.14711e-01	
1424	1.417280e-02	-4.27173e-01	
1425	1.418280e-02	-4.37589e-01	
1426	1.419280e-02	-4.45919e-01	
1427	1.420280e-02	-4.52131e-01	
1428	1.421280e-02	-4.56202e-01	
1429	1.422280e-02	-4.58118e-01	
1430	1.423280e-02	-4.57871e-01	
1431	1.424280e-02	-4.55464e-01	
1432	1.425280e-02	-4.50908e-01	
1433	1.426280e-02	-4.44221e-01	
1434	1.427280e-02	-4.35431e-01	
1435	1.428280e-02	-4.24574e-01	
1436	1.429280e-02	-4.11694e-01	
1437	1.430280e-02	-3.96842e-01	
1438	1.431280e-02	-3.80080e-01	
1439	1.432280e-02	-3.61472e-01	
1440	1.433280e-02	-3.41096e-01	
1441	1.434280e-02	-3.19031e-01	
1442	1.435280e-02	-2.95366e-01	
1443	1.436280e-02	-2.70195e-01	
1444	1.437280e-02	-2.43620e-01	
1445	1.438280e-02	-2.15745e-01	
1446	1.439280e-02	-1.86683e-01	

Index   time            v(6)            
--------------------------------------------------------------------------------
1447	1.440280e-02	-1.56548e-01	
1448	1.441280e-02	-1.25461e-01	
1449	1.442280e-02	-9.35449e-02	
1450	1.443280e-02	-6.09278e-02	
1451	1.444280e-02	-2.77390e-02	
1452	1.445280e-02	5.889379e-03	
1453	1.446280e-02	3.982364e-02	
1454	1.447280e-02	7.392878e-02	
1455	1.448280e-02	1.080691e-01	
1456	1.449280e-02	1.421090e-01	
1457	1.450280e-02	1.759128e-01	
1458	1.451280e-02	2.093463e-01	
1459	1.452280e-02	2.422764e-01	
1460	1.453280e-02	2.745722e-01	
1461	1.454280e-02	3.061050e-01	
1462	1.455280e-02	3.367496e-01	
1463	1.456280e-02	3.663839e-01	
1464	1.457280e-02	3.948898e-01	
1465	1.458280e-02	4.221540e-01	
1466	1.459280e-02	4.480678e-01	
1467	1.460280e-02	4.725280e-01	
1468	1.461280e-02	4.954368e-01	
1469	1.462280e-02	5.167031e-01	
1470	1.463280e-02	5.362418e-01	
1471	1.464280e-02	5.539748e-01	
1472	1.465280e-02	5.698311e-01	
1473	1.466280e-02	5.837472e-01	
1474	1.467280e-02	5.956672e-01	
1475	1.468280e-02	6.055430e-01	
1476	1.469280e-02	6.133346e-01	
1477	1.470280e-02	6.190105e-01	
1478	1.471280e-02	6.225471e-01	
1479	1.472280e-02	6.239295e-01	
1480	1.473280e-02	6.231513e-01	
1481	1.474280e-02	6.202147e-01	
1482	1.475280e-02	6.151301e-01	
1483	1.476280e-02	6.079169e-01	
1484	1.477280e-02	5.986024e-01	
1485	1.478280e-02	5.872224e-01	
1486	1.479280e-02	5.738210e-01	
1487	1.480280e-02	5.584500e-01	
1488	1.481280e-02	5.411692e-01	
1489	1.482280e-02	5.220459e-01	
1490	1.483280e-02	5.011545e-01	
1491	1.484280e-02	4.785766e-01	
1492	1.485280e-02	4.544003e-01	
1493	1.486280e-02	4.287202e-01	
1494	1.487280e-02	4.016366e-01	
1495	1.488280e-02	3.732555e-01	
1496	1.489280e-02	3.436880e-01	
1497	1.490280e-02	3.130499e-01	
1498	1.491280e-02	2.814612e-01	
1499	1.492280e-02	2.490456e-01	
1500	1.493280e-02	2.159301e-01	
1501	1.494280e-02	1.822445e-01	
1502	1.495280e-02	1.481210e-01	
1503	1.496280e-02	1.136931e-01	
1504	1.497280e-02	7.909595e-02	

Index   time            v(6)            
--------------------------------------------------------------------------------
1505	1.498280e-02	4.446515e-02	
1506	1.499280e-02	9.936469e-03	
1507	1.500280e-02	-2.43547e-02	
1508	1.501280e-02	-5.82739e-02	
1509	1.502280e-02	-9.16882e-02	
1510	1.503280e-02	-1.24467e-01	
1511	1.504280e-02	-1.56481e-01	
1512	1.505280e-02	-1.87605e-01	
1513	1.506280e-02	-2.17717e-01	
1514	1.507280e-02	-2.46699e-01	
1515	1.508280e-02	-2.74438e-01	
1516	1.509280e-02	-3.00826e-01	
1517	1.510280e-02	-3.25758e-01	
1518	1.511280e-02	-3.49137e-01	
1519	1.512280e-02	-3.70872e-01	
1520	1.513280e-02	-3.90878e-01	
1521	1.514280e-02	-4.09077e-01	
1522	1.515280e-02	-4.25398e-01	
1523	1.516280e-02	-4.39777e-01	
1524	1.517280e-02	-4.52158e-01	
1525	1.518280e-02	-4.62494e-01	
1526	1.519280e-02	-4.70744e-01	
1527	1.520280e-02	-4.76877e-01	
1528	1.521280e-02	-4.80869e-01	
1529	1.522280e-02	-4.82706e-01	
1530	1.523280e-02	-4.82380e-01	
1531	1.524280e-02	-4.79894e-01	
1532	1.525280e-02	-4.75260e-01	
1533	1.526280e-02	-4.68495e-01	
1534	1.527280e-02	-4.59627e-01	
1535	1.528280e-02	-4.48692e-01	
1536	1.529280e-02	-4.35735e-01	
1537	1.530280e-02	-4.20807e-01	
1538	1.531280e-02	-4.03967e-01	
1539	1.532280e-02	-3.85283e-01	
1540	1.533280e-02	-3.64830e-01	
1541	1.534280e-02	-3.42689e-01	
1542	1.535280e-02	-3.18949e-01	
1543	1.536280e-02	-2.93702e-01	
1544	1.537280e-02	-2.67052e-01	
1545	1.538280e-02	-2.39102e-01	
1546	1.539280e-02	-2.09964e-01	
1547	1.540280e-02	-1.79755e-01	
1548	1.541280e-02	-1.48593e-01	
1549	1.542280e-02	-1.16604e-01	
1550	1.543280e-02	-8.39125e-02	
1551	1.544280e-02	-5.06501e-02	
1552	1.545280e-02	-1.69483e-02	
1553	1.546280e-02	1.705919e-02	
1554	1.547280e-02	5.123729e-02	
1555	1.548280e-02	8.545038e-02	
1556	1.549280e-02	1.195627e-01	
1557	1.550280e-02	1.534388e-01	
1558	1.551280e-02	1.869443e-01	
1559	1.552280e-02	2.199462e-01	
1560	1.553280e-02	2.523135e-01	
1561	1.554280e-02	2.839178e-01	
1562	1.555280e-02	3.146334e-01	

Index   time            v(6)            
--------------------------------------------------------------------------------
1563	1.556280e-02	3.443386e-01	
1564	1.557280e-02	3.729152e-01	
1565	1.558280e-02	4.002498e-01	
1566	1.559280e-02	4.262338e-01	
1567	1.560280e-02	4.507639e-01	
1568	1.561280e-02	4.737426e-01	
1569	1.562280e-02	4.950783e-01	
1570	1.563280e-02	5.146863e-01	
1571	1.564280e-02	5.324884e-01	
1572	1.565280e-02	5.484136e-01	
1573	1.566280e-02	5.623984e-01	
1574	1.567280e-02	5.743867e-01	
1575	1.568280e-02	5.843307e-01	
1576	1.569280e-02	5.921904e-01	
1577	1.570280e-02	5.979340e-01	
1578	1.571280e-02	6.015381e-01	
1579	1.572280e-02	6.029879e-01	
1580	1.573280e-02	6.022768e-01	
1581	1.574280e-02	5.994071e-01	
1582	1.575280e-02	5.943893e-01	
1583	1.576280e-02	5.872425e-01	
1584	1.577280e-02	5.779942e-01	
1585	1.578280e-02	5.666803e-01	
1586	1.579280e-02	5.533447e-01	
1587	1.580280e-02	5.380394e-01	
1588	1.581280e-02	5.208240e-01	
1589	1.582280e-02	5.017658e-01	
1590	1.583280e-02	4.809394e-01	
1591	1.584280e-02	4.584263e-01	
1592	1.585280e-02	4.343146e-01	
1593	1.586280e-02	4.086989e-01	
1594	1.587280e-02	3.816795e-01	
1595	1.588280e-02	3.533623e-01	
1596	1.589280e-02	3.238586e-01	
1597	1.590280e-02	2.932841e-01	
1598	1.591280e-02	2.617587e-01	
1599	1.592280e-02	2.294062e-01	
1600	1.593280e-02	1.963537e-01	
1601	1.594280e-02	1.627309e-01	
1602	1.595280e-02	1.286698e-01	
1603	1.596280e-02	9.430431e-02	
1604	1.597280e-02	5.976930e-02	
1605	1.598280e-02	2.520044e-02	
1606	1.599280e-02	-9.26650e-03	
1607	1.600280e-02	-4.34961e-02	
1608	1.601280e-02	-7.73540e-02	
1609	1.602280e-02	-1.10707e-01	
1610	1.603280e-02	-1.43425e-01	
1611	1.604280e-02	-1.75378e-01	
1612	1.605280e-02	-2.06441e-01	
1613	1.606280e-02	-2.36493e-01	
1614	1.607280e-02	-2.65415e-01	
1615	1.608280e-02	-2.93095e-01	
1616	1.609280e-02	-3.19422e-01	
1617	1.610280e-02	-3.44294e-01	
1618	1.611280e-02	-3.67614e-01	
1619	1.612280e-02	-3.89290e-01	
1620	1.613280e-02	-4.09237e-01	

Index   time            v(6)            
--------------------------------------------------------------------------------
1621	1.614280e-02	-4.27377e-01	
1622	1.615280e-02	-4.43639e-01	
1623	1.616280e-02	-4.57960e-01	
1624	1.617280e-02	-4.70283e-01	
1625	1.618280e-02	-4.80561e-01	
1626	1.619280e-02	-4.88753e-01	
1627	1.620280e-02	-4.94828e-01	
1628	1.621280e-02	-4.98763e-01	
1629	1.622280e-02	-5.00542e-01	
1630	1.623280e-02	-5.00159e-01	
1631	1.624280e-02	-4.97617e-01	
1632	1.625280e-02	-4.92925e-01	
1633	1.626280e-02	-4.86103e-01	
1634	1.627280e-02	-4.77179e-01	
1635	1.628280e-02	-4.66188e-01	
1636	1.629280e-02	-4.53175e-01	
1637	1.630280e-02	-4.38191e-01	
1638	1.631280e-02	-4.21295e-01	
1639	1.632280e-02	-4.02556e-01	
1640	1.633280e-02	-3.82048e-01	
1641	1.634280e-02	-3.59852e-01	
1642	1.635280e-02	-3.36056e-01	
1643	1.636280e-02	-3.10755e-01	
1644	1.637280e-02	-2.84049e-01	
1645	1.638280e-02	-2.56045e-01	
1646	1.639280e-02	-2.26853e-01	
1647	1.640280e-02	-1.96590e-01	
1648	1.641280e-02	-1.65374e-01	
1649	1.642280e-02	-1.33331e-01	
1650	1.643280e-02	-1.00586e-01	
1651	1.644280e-02	-6.72702e-02	
1652	1.645280e-02	-3.35151e-02	
1653	1.646280e-02	5.454937e-04	
1654	1.647280e-02	3.477652e-02	
1655	1.648280e-02	6.904236e-02	
1656	1.649280e-02	1.032073e-01	
1657	1.650280e-02	1.371358e-01	
1658	1.651280e-02	1.706936e-01	
1659	1.652280e-02	2.037476e-01	
1660	1.653280e-02	2.361668e-01	
1661	1.654280e-02	2.678227e-01	
1662	1.655280e-02	2.985900e-01	
1663	1.656280e-02	3.283466e-01	
1664	1.657280e-02	3.569744e-01	
1665	1.658280e-02	3.843602e-01	
1666	1.659280e-02	4.103951e-01	
1667	1.660280e-02	4.349759e-01	
1668	1.661280e-02	4.580052e-01	
1669	1.662280e-02	4.793914e-01	
1670	1.663280e-02	4.990497e-01	
1671	1.664280e-02	5.169019e-01	
1672	1.665280e-02	5.328770e-01	
1673	1.666280e-02	5.469116e-01	
1674	1.667280e-02	5.589496e-01	
1675	1.668280e-02	5.689431e-01	
1676	1.669280e-02	5.768520e-01	
1677	1.670280e-02	5.826448e-01	
1678	1.671280e-02	5.862979e-01	

Index   time            v(6)            
--------------------------------------------------------------------------------
1679	1.672280e-02	5.877965e-01	
1680	1.673280e-02	5.871341e-01	
1681	1.674280e-02	5.843129e-01	
1682	1.675280e-02	5.793435e-01	
1683	1.676280e-02	5.722449e-01	
1684	1.677280e-02	5.630447e-01	
1685	1.678280e-02	5.517787e-01	
1686	1.679280e-02	5.384909e-01	
1687	1.680280e-02	5.232332e-01	
1688	1.681280e-02	5.060652e-01	
1689	1.682280e-02	4.870544e-01	
1690	1.683280e-02	4.662751e-01	
1691	1.684280e-02	4.438090e-01	
1692	1.685280e-02	4.197442e-01	
1693	1.686280e-02	3.941751e-01	
1694	1.687280e-02	3.672022e-01	
1695	1.688280e-02	3.389315e-01	
1696	1.689280e-02	3.094741e-01	
1697	1.690280e-02	2.789456e-01	
1698	1.691280e-02	2.474662e-01	
1699	1.692280e-02	2.151595e-01	
1700	1.693280e-02	1.821526e-01	
1701	1.694280e-02	1.485753e-01	
1702	1.695280e-02	1.145597e-01	
1703	1.696280e-02	8.023937e-02	
1704	1.697280e-02	4.574944e-02	
1705	1.698280e-02	1.122551e-02	
1706	1.699280e-02	-2.31966e-02	
1707	1.700280e-02	-5.73816e-02	
1708	1.701280e-02	-9.11950e-02	
1709	1.702280e-02	-1.24504e-01	
1710	1.703280e-02	-1.57177e-01	
1711	1.704280e-02	-1.89086e-01	
1712	1.705280e-02	-2.20106e-01	
1713	1.706280e-02	-2.50114e-01	
1714	1.707280e-02	-2.78992e-01	
1715	1.708280e-02	-3.06628e-01	
1716	1.709280e-02	-3.32912e-01	
1717	1.710280e-02	-3.57741e-01	
1718	1.711280e-02	-3.81018e-01	
1719	1.712280e-02	-4.02651e-01	
1720	1.713280e-02	-4.22555e-01	
1721	1.714280e-02	-4.40653e-01	
1722	1.715280e-02	-4.56872e-01	
1723	1.716280e-02	-4.71150e-01	
1724	1.717280e-02	-4.83431e-01	
1725	1.718280e-02	-4.93667e-01	
1726	1.719280e-02	-5.01817e-01	
1727	1.720280e-02	-5.07850e-01	
1728	1.721280e-02	-5.11743e-01	
1729	1.722280e-02	-5.13480e-01	
1730	1.723280e-02	-5.13056e-01	
1731	1.724280e-02	-5.10472e-01	
1732	1.725280e-02	-5.05740e-01	
1733	1.726280e-02	-4.98877e-01	
1734	1.727280e-02	-4.89912e-01	
1735	1.728280e-02	-4.78880e-01	
1736	1.729280e-02	-4.65826e-01	

Index   time            v(6)            
--------------------------------------------------------------------------------
1737	1.730280e-02	-4.50801e-01	
1738	1.731280e-02	-4.33866e-01	
1739	1.732280e-02	-4.15086e-01	
1740	1.733280e-02	-3.94537e-01	
1741	1.734280e-02	-3.72301e-01	
1742	1.735280e-02	-3.48466e-01	
1743	1.736280e-02	-3.23125e-01	
1744	1.737280e-02	-2.96380e-01	
1745	1.738280e-02	-2.68336e-01	
1746	1.739280e-02	-2.39105e-01	
1747	1.740280e-02	-2.08802e-01	
1748	1.741280e-02	-1.77547e-01	
1749	1.742280e-02	-1.45465e-01	
1750	1.743280e-02	-1.12681e-01	
1751	1.744280e-02	-7.93266e-02	
1752	1.745280e-02	-4.55329e-02	
1753	1.746280e-02	-1.14338e-02	
1754	1.747280e-02	2.283561e-02	
1755	1.748280e-02	5.713973e-02	
1756	1.749280e-02	9.134277e-02	
1757	1.750280e-02	1.253093e-01	
1758	1.751280e-02	1.589050e-01	
1759	1.752280e-02	1.919968e-01	
1760	1.753280e-02	2.244537e-01	
1761	1.754280e-02	2.561472e-01	
1762	1.755280e-02	2.869518e-01	
1763	1.756280e-02	3.167457e-01	
1764	1.757280e-02	3.454108e-01	
1765	1.758280e-02	3.728335e-01	
1766	1.759280e-02	3.989054e-01	
1767	1.760280e-02	4.235231e-01	
1768	1.761280e-02	4.465890e-01	
1769	1.762280e-02	4.680118e-01	
1770	1.763280e-02	4.877066e-01	
1771	1.764280e-02	5.055951e-01	
1772	1.765280e-02	5.216065e-01	
1773	1.766280e-02	5.356772e-01	
1774	1.767280e-02	5.477512e-01	
1775	1.768280e-02	5.577806e-01	
1776	1.769280e-02	5.657253e-01	
1777	1.770280e-02	5.715537e-01	
1778	1.771280e-02	5.752424e-01	
1779	1.772280e-02	5.767764e-01	
1780	1.773280e-02	5.761494e-01	
1781	1.774280e-02	5.733634e-01	
1782	1.775280e-02	5.684290e-01	
1783	1.776280e-02	5.613654e-01	
1784	1.777280e-02	5.522001e-01	
1785	1.778280e-02	5.409689e-01	
1786	1.779280e-02	5.277157e-01	
1787	1.780280e-02	5.124925e-01	
1788	1.781280e-02	4.953590e-01	
1789	1.782280e-02	4.763825e-01	
1790	1.783280e-02	4.556374e-01	
1791	1.784280e-02	4.332054e-01	
1792	1.785280e-02	4.091745e-01	
1793	1.786280e-02	3.836393e-01	
1794	1.787280e-02	3.567002e-01	

Index   time            v(6)            
--------------------------------------------------------------------------------
1795	1.788280e-02	3.284632e-01	
1796	1.789280e-02	2.990393e-01	
1797	1.790280e-02	2.685443e-01	
1798	1.791280e-02	2.370982e-01	
1799	1.792280e-02	2.048247e-01	
1800	1.793280e-02	1.718510e-01	
1801	1.794280e-02	1.383067e-01	
1802	1.795280e-02	1.043239e-01	
1803	1.796280e-02	7.003644e-02	
1804	1.797280e-02	3.557921e-02	
1805	1.798280e-02	1.087871e-03	
1806	1.799280e-02	-3.33018e-02	
1807	1.800280e-02	-6.74544e-02	
1808	1.801280e-02	-1.01235e-01	
1809	1.802280e-02	-1.34512e-01	
1810	1.803280e-02	-1.67153e-01	
1811	1.804280e-02	-1.99030e-01	
1812	1.805280e-02	-2.30018e-01	
1813	1.806280e-02	-2.59994e-01	
1814	1.807280e-02	-2.88841e-01	
1815	1.808280e-02	-3.16445e-01	
1816	1.809280e-02	-3.42698e-01	
1817	1.810280e-02	-3.67496e-01	
1818	1.811280e-02	-3.90741e-01	
1819	1.812280e-02	-4.12343e-01	
1820	1.813280e-02	-4.32216e-01	
1821	1.814280e-02	-4.50283e-01	
1822	1.815280e-02	-4.66471e-01	
1823	1.816280e-02	-4.80719e-01	
1824	1.817280e-02	-4.92969e-01	
1825	1.818280e-02	-5.03174e-01	
1826	1.819280e-02	-5.11294e-01	
1827	1.820280e-02	-5.17296e-01	
1828	1.821280e-02	-5.21159e-01	
1829	1.822280e-02	-5.22866e-01	
1830	1.823280e-02	-5.22412e-01	
1831	1.824280e-02	-5.19798e-01	
1832	1.825280e-02	-5.15036e-01	
1833	1.826280e-02	-5.08143e-01	
1834	1.827280e-02	-4.99148e-01	
1835	1.828280e-02	-4.88087e-01	
1836	1.829280e-02	-4.75004e-01	
1837	1.830280e-02	-4.59949e-01	
1838	1.831280e-02	-4.42984e-01	
1839	1.832280e-02	-4.24175e-01	
1840	1.833280e-02	-4.03598e-01	
1841	1.834280e-02	-3.81333e-01	
1842	1.835280e-02	-3.57468e-01	
1843	1.836280e-02	-3.32098e-01	
1844	1.837280e-02	-3.05325e-01	
1845	1.838280e-02	-2.77252e-01	
1846	1.839280e-02	-2.47992e-01	
1847	1.840280e-02	-2.17661e-01	
1848	1.841280e-02	-1.86378e-01	
1849	1.842280e-02	-1.54267e-01	
1850	1.843280e-02	-1.21455e-01	
1851	1.844280e-02	-8.80726e-02	
1852	1.845280e-02	-5.42508e-02	

Index   time            v(6)            
--------------------------------------------------------------------------------
1853	1.846280e-02	-2.01238e-02	
1854	1.847280e-02	1.417349e-02	
1855	1.848280e-02	4.850537e-02	
1856	1.849280e-02	8.273608e-02	
1857	1.850280e-02	1.167302e-01	
1858	1.851280e-02	1.503534e-01	
1859	1.852280e-02	1.834726e-01	
1860	1.853280e-02	2.159568e-01	
1861	1.854280e-02	2.476775e-01	
1862	1.855280e-02	2.785093e-01	
1863	1.856280e-02	3.083302e-01	
1864	1.857280e-02	3.370223e-01	
1865	1.858280e-02	3.644720e-01	
1866	1.859280e-02	3.905706e-01	
1867	1.860280e-02	4.152150e-01	
1868	1.861280e-02	4.383076e-01	
1869	1.862280e-02	4.597569e-01	
1870	1.863280e-02	4.794781e-01	
1871	1.864280e-02	4.973930e-01	
1872	1.865280e-02	5.134307e-01	
1873	1.866280e-02	5.275276e-01	
1874	1.867280e-02	5.396277e-01	
1875	1.868280e-02	5.496831e-01	
1876	1.869280e-02	5.576538e-01	
1877	1.870280e-02	5.635081e-01	
1878	1.871280e-02	5.672226e-01	
1879	1.872280e-02	5.687823e-01	
1880	1.873280e-02	5.681809e-01	
1881	1.874280e-02	5.654204e-01	
1882	1.875280e-02	5.605115e-01	
1883	1.876280e-02	5.534733e-01	
1884	1.877280e-02	5.443333e-01	
1885	1.878280e-02	5.331273e-01	
1886	1.879280e-02	5.198992e-01	
1887	1.880280e-02	5.047011e-01	
1888	1.881280e-02	4.875925e-01	
1889	1.882280e-02	4.686409e-01	
1890	1.883280e-02	4.479206e-01	
1891	1.884280e-02	4.255133e-01	
1892	1.885280e-02	4.015071e-01	
1893	1.886280e-02	3.759965e-01	
1894	1.887280e-02	3.490819e-01	
1895	1.888280e-02	3.208693e-01	
1896	1.889280e-02	2.914697e-01	
1897	1.890280e-02	2.609990e-01	
1898	1.891280e-02	2.295770e-01	
1899	1.892280e-02	1.973277e-01	
1900	1.893280e-02	1.643780e-01	
1901	1.894280e-02	1.308577e-01	
1902	1.895280e-02	9.689876e-02	
1903	1.896280e-02	6.263507e-02	
1904	1.897280e-02	2.820156e-02	
1905	1.898280e-02	-6.26613e-03	
1906	1.899280e-02	-4.06322e-02	
1907	1.900280e-02	-7.47613e-02	
1908	1.901280e-02	-1.08519e-01	
1909	1.902280e-02	-1.41772e-01	
1910	1.903280e-02	-1.74390e-01	

Index   time            v(6)            
--------------------------------------------------------------------------------
1911	1.904280e-02	-2.06244e-01	
1912	1.905280e-02	-2.37209e-01	
1913	1.906280e-02	-2.67162e-01	
1914	1.907280e-02	-2.95986e-01	
1915	1.908280e-02	-3.23567e-01	
1916	1.909280e-02	-3.49797e-01	
1917	1.910280e-02	-3.74572e-01	
1918	1.911280e-02	-3.97795e-01	
1919	1.912280e-02	-4.19374e-01	
1920	1.913280e-02	-4.39225e-01	
1921	1.914280e-02	-4.57269e-01	
1922	1.915280e-02	-4.73435e-01	
1923	1.916280e-02	-4.87660e-01	
1924	1.917280e-02	-4.99888e-01	
1925	1.918280e-02	-5.10071e-01	
1926	1.919280e-02	-5.18168e-01	
1927	1.920280e-02	-5.24149e-01	
1928	1.921280e-02	-5.27990e-01	
1929	1.922280e-02	-5.29675e-01	
1930	1.923280e-02	-5.29199e-01	
1931	1.924280e-02	-5.26563e-01	
1932	1.925280e-02	-5.21779e-01	
1933	1.926280e-02	-5.14865e-01	
1934	1.927280e-02	-5.05849e-01	
1935	1.928280e-02	-4.94766e-01	
1936	1.929280e-02	-4.81661e-01	
1937	1.930280e-02	-4.66585e-01	
1938	1.931280e-02	-4.49599e-01	
1939	1.932280e-02	-4.30769e-01	
1940	1.933280e-02	-4.10170e-01	
1941	1.934280e-02	-3.87884e-01	
1942	1.935280e-02	-3.63998e-01	
1943	1.936280e-02	-3.38608e-01	
1944	1.937280e-02	-3.11813e-01	
1945	1.938280e-02	-2.83720e-01	
1946	1.939280e-02	-2.54439e-01	
1947	1.940280e-02	-2.24087e-01	
1948	1.941280e-02	-1.92784e-01	
1949	1.942280e-02	-1.60652e-01	
1950	1.943280e-02	-1.27820e-01	
1951	1.944280e-02	-9.44170e-02	
1952	1.945280e-02	-6.05749e-02	
1953	1.946280e-02	-2.64276e-02	
1954	1.947280e-02	7.889842e-03	
1955	1.948280e-02	4.224186e-02	
1956	1.949280e-02	7.649265e-02	
1957	1.950280e-02	1.105068e-01	
1958	1.951280e-02	1.441499e-01	
1959	1.952280e-02	1.772890e-01	
1960	1.953280e-02	2.097930e-01	
1961	1.954280e-02	2.415335e-01	
1962	1.955280e-02	2.723850e-01	
1963	1.956280e-02	3.022255e-01	
1964	1.957280e-02	3.309372e-01	
1965	1.958280e-02	3.584063e-01	
1966	1.959280e-02	3.845244e-01	
1967	1.960280e-02	4.091882e-01	
1968	1.961280e-02	4.323001e-01	

Index   time            v(6)            
--------------------------------------------------------------------------------
1969	1.962280e-02	4.537687e-01	
1970	1.963280e-02	4.735091e-01	
1971	1.964280e-02	4.914431e-01	
1972	1.965280e-02	5.074999e-01	
1973	1.966280e-02	5.216157e-01	
1974	1.967280e-02	5.337348e-01	
1975	1.968280e-02	5.438091e-01	
1976	1.969280e-02	5.517987e-01	
1977	1.970280e-02	5.576717e-01	
1978	1.971280e-02	5.614049e-01	
1979	1.972280e-02	5.629832e-01	
1980	1.973280e-02	5.624004e-01	
1981	1.974280e-02	5.596585e-01	
1982	1.975280e-02	5.547680e-01	
1983	1.976280e-02	5.477482e-01	
1984	1.977280e-02	5.386265e-01	
1985	1.978280e-02	5.274388e-01	
1986	1.979280e-02	5.142290e-01	
1987	1.980280e-02	4.990490e-01	
1988	1.981280e-02	4.819586e-01	
1989	1.982280e-02	4.630250e-01	
1990	1.983280e-02	4.423228e-01	
1991	1.984280e-02	4.199334e-01	
1992	1.985280e-02	3.959451e-01	
1993	1.986280e-02	3.704523e-01	
1994	1.987280e-02	3.435555e-01	
1995	1.988280e-02	3.153605e-01	
1996	1.989280e-02	2.859786e-01	
1997	1.990280e-02	2.555255e-01	
1998	1.991280e-02	2.241211e-01	
1999	1.992280e-02	1.918893e-01	
2000	1.993280e-02	1.589570e-01	
2001	1.994280e-02	1.254540e-01	
2002	1.995280e-02	9.151243e-02	
2003	1.996280e-02	5.726600e-02	
2004	1.997280e-02	2.284969e-02	
2005	1.998280e-02	-1.16008e-02	
2006	1.999280e-02	-4.59498e-02	
2007	2.000000e-02	-7.05422e-02	
op_END
ngspice-31 done
