
Circuit: .options savecurrents

Doing analysis at TEMP = 27.000000 and TNOM = 27.000000


No. of Data Rows : 1
********************************************
Operating point
********************************************
op_TAB
@r1[i] = 2.032426e-18
@r2[i] = -2.12696e-18
@r3[i] = 9.453332e-20
@r4[i] = -4.26077e-19
@r5[i] = 2.833760e-03
@r6[i] = 0.000000e+00
@r7[i] = -1.76599e-18
v(1) = 0.000000e+00
v(2) = 2.067951e-15
v(3) = 6.395007e-15
v(4) = 0.000000e+00
v(5) = 1.776357e-15
v(6) = 8.523047e+00
v(7) = 0.000000e+00
v(8) = 1.776357e-15
hd#branch = 2.833760e-03
va#branch = -2.83376e-03
vcc#branch = 2.032426e-18
vd#branch = 0.000000e+00
op_END
ngspice-31 done
