
Circuit: .options savecurrents

Doing analysis at TEMP = 27.000000 and TNOM = 27.000000


No. of Data Rows : 1
********************************************
Operating point
********************************************
op_TAB
@r1[i] = -2.58478e-04
@r2[i] = 2.705006e-04
@r3[i] = -1.20225e-05
@r4[i] = -1.17739e-03
@r5[i] = 2.705006e-04
@r6[i] = 9.189098e-04
@r7[i] = 9.189098e-04
@c[i] = 0.000000e+00
v(1) = 5.134559e+00
v(2) = 4.871563e+00
v(3) = 4.321260e+00
v(4) = -1.87652e+00
v(5) = 4.908647e+00
v(6) = 5.722227e+00
v(7) = -1.87652e+00
v(8) = -2.80082e+00
hd#branch = -9.18910e-04
vcc#branch = -2.58478e-04
vd#branch = 9.189098e-04
op_END
ngspice-31 done
