
Circuit: .options savecurrents

.ic: no such command available in ngspice
Doing analysis at TEMP = 27.000000 and TNOM = 27.000000


No. of Data Rows : 1
********************************************
Frequency analysis
********************************************
Doing analysis at TEMP = 27.000000 and TNOM = 27.000000


No. of Data Rows : 71

The file "acm.ps" may be printed on a postscript printer.
acm_FIG

The file "freq.ps" may be printed on a postscript printer.
freq_FIG
op_END
ngspice-31 done
